
     RDKit          3D

 15 16  0  0  0  0  0  0  0  0999 V2000
  -25.7360  -11.7800   -4.6010 C   0  0  0  0  0  0  0  0  0  0  0  0
  -26.0650  -11.7340   -6.1000 C   0  0  0  0  0  0  0  0  0  0  0  0
  -27.5330  -12.2960   -7.7240 C   0  0  0  0  0  0  0  0  0  0  0  0
  -27.2790  -13.2950   -8.8440 C   0  0  0  0  0  0  0  0  0  0  0  0
  -26.5730  -14.8670   -7.3470 C   0  0  0  0  0  0  0  0  0  0  0  0
  -26.7190  -13.9200   -6.1610 C   0  0  0  0  0  0  0  0  0  0  0  0
  -23.0920  -10.8030   -5.1640 C   0  0  0  0  0  0  0  0  0  0  0  0
  -23.4140   -9.5120   -4.7890 C   0  0  0  0  0  0  0  0  0  0  0  0
  -22.7630   -8.4490   -5.3700 C   0  0  0  0  0  0  0  0  0  0  0  0
  -21.7880   -8.6560   -6.3330 C   0  0  0  0  0  0  0  0  0  0  0  0
  -21.4720   -9.9470   -6.7100 C   0  0  0  0  0  0  0  0  0  0  0  0
  -22.1290  -11.0270   -6.1280 C   0  0  0  0  0  0  0  0  0  0  0  0
  -26.9480  -12.5810   -6.4870 N   0  0  1  0  0  0  0  0  0  0  0  0
  -27.4390  -14.5780   -8.3910 O   0  0  0  0  0  0  0  0  0  0  0  0
  -23.9740  -12.1810   -4.3960 S   0  0  0  0  0  0  0  0  0  0  0  0
  2  1  1  0
  4  3  1  0
  6  5  1  0
  8  7  2  0
  9  8  1  0
 10  9  2  0
 11 10  1  0
 12  7  1  0
 12 11  2  0
 13  3  1  0
 13  6  1  0
 13  2  1  6
 14  4  1  0
 14  5  1  0
 15  1  1  0
 15  7  1  0
M  CHG  1  13   1
M  END
$$$$

     RDKit          3D

 21 23  0  0  0  0  0  0  0  0999 V2000
   -8.5990    0.0370  -21.6360 O   0  0  0  0  0  0  0  0  0  0  0  0
   -8.2770   -1.1430  -21.6360 C   0  0  0  0  0  0  0  0  0  0  0  0
   -8.7870   -2.1070  -22.6910 C   0  0  0  0  0  0  0  0  0  0  0  0
  -10.2550   -1.8930  -22.9910 C   0  0  0  0  0  0  0  0  0  0  0  0
  -10.6610   -0.9780  -23.9550 C   0  0  0  0  0  0  0  0  0  0  0  0
  -12.0050   -0.6810  -24.1310 C   0  0  0  0  0  0  0  0  0  0  0  0
  -12.9660   -1.3120  -23.3540 C   0  0  0  0  0  0  0  0  0  0  0  0
  -11.2230   -2.5430  -22.2340 C   0  0  0  0  0  0  0  0  0  0  0  0
  -12.5570   -2.2400  -22.4220 C   0  0  0  0  0  0  0  0  0  0  0  0
  -13.7470   -3.0440  -21.4380 Cl  0  0  0  0  0  0  0  0  0  0  0  0
   -7.5510   -1.7110  -20.6570 N   0  0  0  0  0  0  0  0  0  0  0  0
   -6.5230   -1.2050  -19.8430 C   0  0  0  0  0  0  0  0  0  0  0  0
   -5.4740   -0.3710  -20.3600 C   0  0  0  0  0  0  0  0  0  0  0  0
   -5.0180   -0.3000  -21.7010 C   0  0  0  0  0  0  0  0  0  0  0  0
   -3.9250    0.3410  -22.1120 N   0  0  0  0  0  0  0  0  0  0  0  0
   -3.2040    0.9950  -21.1940 C   0  0  0  0  0  0  0  0  0  0  0  0
   -3.5310    1.0520  -19.8790 C   0  0  0  0  0  0  0  0  0  0  0  0
   -4.6810    0.3570  -19.4220 C   0  0  0  0  0  0  0  0  0  0  0  0
   -5.0070    0.2430  -18.0480 C   0  0  0  0  0  0  0  0  0  0  0  0
   -5.9680   -0.5340  -17.5740 N   0  0  0  0  0  0  0  0  0  0  0  0
   -6.6760   -1.2470  -18.4570 C   0  0  0  0  0  0  0  0  0  0  0  0
  2  1  2  0
  3  2  1  0
  4  3  1  0
  5  4  2  0
  6  5  1  0
  7  6  2  0
  8  4  1  0
  9  8  2  0
  9  7  1  0
 10  9  1  0
 11  2  1  0
 12 11  1  0
 13 12  1  0
 14 13  2  0
 15 14  1  0
 16 15  2  0
 17 16  1  0
 18 13  1  0
 18 17  2  0
 19 18  1  0
 20 19  2  0
 21 20  1  0
 21 12  2  0
M  END
$$$$

     RDKit          3D

 27 30  0  0  0  0  0  0  0  0999 V2000
   -9.5220   -0.0400  -21.3050 O   0  0  0  0  0  0  0  0  0  0  0  0
   -8.9250   -0.9210  -21.9020 C   0  0  0  0  0  0  0  0  0  0  0  0
   -9.5940   -1.6510  -23.0880 C   0  0  1  0  0  0  0  0  0  0  0  0
  -11.1000   -1.3540  -23.0750 C   0  0  0  0  0  0  0  0  0  0  0  0
  -11.9080   -2.0390  -22.1680 C   0  0  0  0  0  0  0  0  0  0  0  0
  -13.2450   -1.7100  -22.0520 C   0  0  0  0  0  0  0  0  0  0  0  0
  -14.2260   -2.5770  -20.9020 Cl  0  0  0  0  0  0  0  0  0  0  0  0
  -13.8240   -0.7150  -22.8160 C   0  0  0  0  0  0  0  0  0  0  0  0
  -13.0520   -0.0450  -23.7440 C   0  0  0  0  0  0  0  0  0  0  0  0
  -11.7090   -0.3660  -23.8750 C   0  0  0  0  0  0  0  0  0  0  0  0
  -10.7810    0.4970  -25.0870 S   0  0  2  0  0  0  0  0  0  0  0  0
  -11.0540    1.8970  -24.9800 O   0  0  0  0  0  0  0  0  0  0  0  0
  -10.9470   -0.1460  -26.3550 O   0  0  0  0  0  0  0  0  0  0  0  0
   -9.2490    0.2400  -24.5960 N   0  0  0  0  0  0  0  0  0  0  0  0
   -8.9290   -1.1810  -24.4030 C   0  0  0  0  0  0  0  0  0  0  0  0
   -9.3820   -3.1690  -22.9240 C   0  0  0  0  0  0  0  0  0  0  0  0
   -7.6830   -1.3440  -21.5510 N   0  0  0  0  0  0  0  0  0  0  0  0
   -6.9260   -0.9330  -20.4280 C   0  0  0  0  0  0  0  0  0  0  0  0
   -5.7440   -0.1550  -20.6340 C   0  0  0  0  0  0  0  0  0  0  0  0
   -5.2210    0.1630  -21.9150 C   0  0  0  0  0  0  0  0  0  0  0  0
   -4.0800    0.9080  -22.0450 C   0  0  0  0  0  0  0  0  0  0  0  0
   -3.4150    1.3870  -20.9190 C   0  0  0  0  0  0  0  0  0  0  0  0
   -3.8820    1.1150  -19.6650 C   0  0  0  0  0  0  0  0  0  0  0  0
   -5.0480    0.3280  -19.4860 C   0  0  0  0  0  0  0  0  0  0  0  0
   -5.5670   -0.0100  -18.2110 C   0  0  0  0  0  0  0  0  0  0  0  0
   -6.6600   -0.7390  -18.0190 N   0  0  0  0  0  0  0  0  0  0  0  0
   -7.3090   -1.1830  -19.1080 C   0  0  0  0  0  0  0  0  0  0  0  0
  2  1  2  0
  3  2  1  0
  4  3  1  0
  5  4  2  0
  6  5  1  0
  7  6  1  0
  8  6  2  0
  9  8  1  0
 10  9  2  0
 10  4  1  0
 11 10  1  0
 12 11  2  0
 13 11  2  0
 11 14  1  1
 15 14  1  0
 15  3  1  0
  3 16  1  1
 17  2  1  0
 18 17  1  0
 19 18  1  0
 20 19  2  0
 21 20  1  0
 22 21  2  0
 23 22  1  0
 24 19  1  0
 24 23  2  0
 25 24  1  0
 26 25  2  0
 27 26  1  0
 27 18  2  0
M  END
$$$$

     RDKit          3D

 30 33  0  0  0  0  0  0  0  0999 V2000
  -13.8160   -2.7330  -21.5420 Cl  0  0  0  0  0  0  0  0  0  0  0  0
  -12.5850   -1.9820  -22.5240 C   0  0  0  0  0  0  0  0  0  0  0  0
  -11.2720   -2.3890  -22.3800 C   0  0  0  0  0  0  0  0  0  0  0  0
  -12.9430   -1.0100  -23.4300 C   0  0  0  0  0  0  0  0  0  0  0  0
  -11.9680   -0.4550  -24.2380 C   0  0  0  0  0  0  0  0  0  0  0  0
  -10.6330   -0.8400  -24.1230 C   0  0  0  0  0  0  0  0  0  0  0  0
   -9.5900   -0.1900  -25.0050 C   0  0  0  0  0  0  0  0  0  0  0  0
   -8.2290   -0.3500  -24.4730 N   0  0  2  0  0  0  0  0  0  0  0  0
   -7.2020    0.2510  -25.3200 C   0  0  0  0  0  0  0  0  0  0  0  0
   -6.5900    1.5190  -24.7490 C   0  0  0  0  0  0  0  0  0  0  0  0
   -5.5890    2.0150  -25.2630 O   0  0  0  0  0  0  0  0  0  0  0  0
   -7.1800    2.0440  -23.6780 N   0  0  0  0  0  0  0  0  0  0  0  0
   -6.6790    3.2350  -23.0140 C   0  0  0  0  0  0  0  0  0  0  0  0
  -10.2780   -1.8000  -23.1600 C   0  0  0  0  0  0  0  0  0  0  0  0
   -8.8140   -2.1180  -22.9110 C   0  0  1  0  0  0  0  0  0  0  0  0
   -7.9710   -1.7470  -24.1310 C   0  0  0  0  0  0  0  0  0  0  0  0
   -8.3560   -1.2590  -21.7290 C   0  0  0  0  0  0  0  0  0  0  0  0
   -8.8780   -0.1760  -21.4610 O   0  0  0  0  0  0  0  0  0  0  0  0
   -7.2980   -1.7580  -21.0450 N   0  0  0  0  0  0  0  0  0  0  0  0
   -6.5970   -1.1570  -19.9780 C   0  0  0  0  0  0  0  0  0  0  0  0
   -5.4940   -0.3020  -20.2840 C   0  0  0  0  0  0  0  0  0  0  0  0
   -5.0180   -0.0760  -21.5990 C   0  0  0  0  0  0  0  0  0  0  0  0
   -3.9840    0.7800  -21.8370 C   0  0  0  0  0  0  0  0  0  0  0  0
   -3.3950    1.4540  -20.7820 C   0  0  0  0  0  0  0  0  0  0  0  0
   -2.1620    2.6360  -21.1260 Cl  0  0  0  0  0  0  0  0  0  0  0  0
   -3.7860    1.2630  -19.4870 C   0  0  0  0  0  0  0  0  0  0  0  0
   -4.8450    0.3700  -19.2080 C   0  0  0  0  0  0  0  0  0  0  0  0
   -5.3130    0.1120  -17.8950 C   0  0  0  0  0  0  0  0  0  0  0  0
   -6.3260   -0.6960  -17.6110 N   0  0  0  0  0  0  0  0  0  0  0  0
   -6.9440   -1.3000  -18.6350 C   0  0  0  0  0  0  0  0  0  0  0  0
  2  1  1  0
  3  2  2  0
  4  2  1  0
  5  4  2  0
  6  5  1  0
  7  6  1  0
  8  7  1  0
  8  9  1  6
 10  9  1  0
 11 10  2  0
 12 10  1  0
 13 12  1  0
 14  3  1  0
 14  6  2  0
 15 14  1  0
 16 15  1  0
 16  8  1  0
 15 17  1  1
 18 17  2  0
 19 17  1  0
 20 19  1  0
 21 20  1  0
 22 21  2  0
 23 22  1  0
 24 23  2  0
 25 24  1  0
 26 24  1  0
 27 21  1  0
 27 26  2  0
 28 27  1  0
 29 28  2  0
 30 29  1  0
 30 20  2  0
M  CHG  1   8   1
M  END
$$$$

     RDKit          3D

 27 29  0  0  0  0  0  0  0  0999 V2000
  -13.8210   -2.5150  -21.7390 Cl  0  0  0  0  0  0  0  0  0  0  0  0
  -12.4910   -1.9570  -22.7180 C   0  0  0  0  0  0  0  0  0  0  0  0
  -12.7360   -1.0750  -23.7500 C   0  0  0  0  0  0  0  0  0  0  0  0
  -11.6680   -0.6470  -24.5230 C   0  0  0  0  0  0  0  0  0  0  0  0
  -10.3800   -1.0700  -24.2300 C   0  0  0  0  0  0  0  0  0  0  0  0
  -11.2160   -2.3990  -22.4250 C   0  0  0  0  0  0  0  0  0  0  0  0
  -10.1380   -1.9300  -23.1680 C   0  0  0  0  0  0  0  0  0  0  0  0
   -8.7250   -2.2700  -22.7550 C   0  0  0  0  0  0  0  0  0  0  0  0
   -8.1480   -1.2520  -21.7900 C   0  0  0  0  0  0  0  0  0  0  0  0
   -8.6800   -0.1600  -21.6060 O   0  0  0  0  0  0  0  0  0  0  0  0
   -7.0340   -1.6630  -21.1460 N   0  0  0  0  0  0  0  0  0  0  0  0
   -6.3760   -1.0490  -20.0630 C   0  0  0  0  0  0  0  0  0  0  0  0
   -6.7830   -1.1810  -18.7330 C   0  0  0  0  0  0  0  0  0  0  0  0
   -6.2130   -0.5660  -17.6890 N   0  0  0  0  0  0  0  0  0  0  0  0
   -5.1880    0.2350  -17.9370 C   0  0  0  0  0  0  0  0  0  0  0  0
   -5.2580   -0.1990  -20.3310 C   0  0  0  0  0  0  0  0  0  0  0  0
   -4.6540    0.4700  -19.2280 C   0  0  0  0  0  0  0  0  0  0  0  0
   -3.5610    1.3330  -19.4670 C   0  0  0  0  0  0  0  0  0  0  0  0
   -3.0810    1.5220  -20.7280 C   0  0  0  0  0  0  0  0  0  0  0  0
   -4.7270    0.0150  -21.6280 C   0  0  0  0  0  0  0  0  0  0  0  0
   -3.6580    0.8620  -21.8050 C   0  0  0  0  0  0  0  0  0  0  0  0
   -3.0510    1.1850  -22.9960 O   0  0  0  0  0  0  0  0  0  0  0  0
   -3.2100    0.2990  -24.1210 C   0  0  0  0  0  0  0  0  0  0  0  0
   -2.2160    0.7080  -25.1920 C   0  0  0  0  0  0  0  0  0  0  0  0
   -2.5910    1.8800  -26.0020 N   0  0  2  0  0  0  0  0  0  0  0  0
   -3.0570    1.4660  -27.3220 C   0  0  0  0  0  0  0  0  0  0  0  0
   -1.4740    2.8180  -26.1380 C   0  0  0  0  0  0  0  0  0  0  0  0
  2  1  1  0
  3  2  2  0
  4  3  1  0
  5  4  2  0
  6  2  1  0
  7  6  2  0
  7  5  1  0
  8  7  1  0
  9  8  1  0
 10  9  2  0
 11  9  1  0
 12 11  1  0
 13 12  2  0
 14 13  1  0
 15 14  2  0
 16 12  1  0
 17 16  2  0
 17 15  1  0
 18 17  1  0
 19 18  2  0
 20 16  1  0
 21 20  2  0
 21 19  1  0
 22 21  1  0
 23 22  1  0
 24 23  1  0
 25 24  1  0
 25 26  1  6
 27 25  1  0
M  CHG  1  25   1
M  END
$$$$

     RDKit          3D

 19 21  0  0  0  0  0  0  0  0999 V2000
  -13.4230   -2.6110  -23.9520 C   0  0  0  0  0  0  0  0  0  0  0  0
   -5.6050   -0.2060  -18.9920 C   0  0  0  0  0  0  0  0  0  0  0  0
   -3.8260    0.9070  -19.8330 C   0  0  0  0  0  0  0  0  0  0  0  0
   -4.1590    0.5640  -21.1400 C   0  0  0  0  0  0  0  0  0  0  0  0
   -5.2830   -0.2010  -21.3720 C   0  0  0  0  0  0  0  0  0  0  0  0
   -6.0390   -0.6100  -20.2690 C   0  0  0  0  0  0  0  0  0  0  0  0
  -11.1560   -3.1010  -23.2960 C   0  0  0  0  0  0  0  0  0  0  0  0
   -9.7110   -2.6770  -23.4130 C   0  0  0  0  0  0  0  0  0  0  0  0
  -10.4150   -0.3790  -23.6810 C   0  0  0  0  0  0  0  0  0  0  0  0
  -11.8560   -0.8190  -23.5810 C   0  0  0  0  0  0  0  0  0  0  0  0
   -8.8390   -0.9350  -21.8630 C   0  0  0  0  0  0  0  0  0  0  0  0
   -8.0640   -2.0170  -21.1260 C   0  0  0  0  0  0  0  0  0  0  0  0
   -7.2240   -1.3890  -20.0650 C   0  0  0  0  0  0  0  0  0  0  0  0
   -7.4560   -1.4070  -18.7220 C   0  0  0  0  0  0  0  0  0  0  0  0
  -12.0230   -2.1960  -24.0520 N   0  0  2  0  0  0  0  0  0  0  0  0
   -9.5730   -1.3040  -22.9280 N   0  0  0  0  0  0  0  0  0  0  0  0
   -6.4840   -0.6950  -18.0720 N   0  0  0  0  0  0  0  0  0  0  0  0
   -4.5240    0.5480  -18.7470 N   0  0  0  0  0  0  0  0  0  0  0  0
   -8.8030    0.2300  -21.4710 O   0  0  0  0  0  0  0  0  0  0  0  0
  4  3  2  0
  5  4  1  0
  6  2  1  0
  6  5  2  0
  8  7  1  0
 10  9  1  0
 12 11  1  0
 13 12  1  0
 13  6  1  0
 14 13  2  0
 15 10  1  0
 15  7  1  0
 15  1  1  1
 16 11  1  0
 16  9  1  0
 16  8  1  0
 17 14  1  0
 17  2  1  0
 18  2  2  0
 18  3  1  0
 19 11  2  0
M  CHG  1  15   1
M  END
$$$$

     RDKit          3D

 33 36  0  0  0  0  0  0  0  0999 V2000
  -13.8160   -2.7340  -21.5000 Cl  0  0  0  0  0  0  0  0  0  0  0  0
  -12.6540   -1.9210  -22.5110 C   0  0  0  0  0  0  0  0  0  0  0  0
  -11.3250   -2.2890  -22.4360 C   0  0  0  0  0  0  0  0  0  0  0  0
  -13.0730   -0.8970  -23.3320 C   0  0  0  0  0  0  0  0  0  0  0  0
  -12.1380   -0.2310  -24.1030 C   0  0  0  0  0  0  0  0  0  0  0  0
  -10.7840   -0.5580  -24.0370 C   0  0  0  0  0  0  0  0  0  0  0  0
   -9.7920    0.2140  -24.8810 C   0  0  0  0  0  0  0  0  0  0  0  0
   -8.4060    0.0370  -24.4170 N   0  0  2  0  0  0  0  0  0  0  0  0
   -7.4130    0.7390  -25.2220 C   0  0  0  0  0  0  0  0  0  0  0  0
   -6.9610    2.0650  -24.6280 C   0  0  0  0  0  0  0  0  0  0  0  0
   -6.2120    2.8030  -25.2610 O   0  0  0  0  0  0  0  0  0  0  0  0
   -7.3960    2.3690  -23.4110 N   0  0  0  0  0  0  0  0  0  0  0  0
   -6.9220    3.5320  -22.6840 C   0  0  0  0  0  0  0  0  0  0  0  0
  -10.3720   -1.5890  -23.1780 C   0  0  0  0  0  0  0  0  0  0  0  0
   -8.8900   -1.8650  -22.9880 C   0  0  1  0  0  0  0  0  0  0  0  0
   -8.1040   -1.3790  -24.2050 C   0  0  0  0  0  0  0  0  0  0  0  0
   -8.4230   -1.0890  -21.7520 C   0  0  0  0  0  0  0  0  0  0  0  0
   -8.9700   -0.0470  -21.3890 O   0  0  0  0  0  0  0  0  0  0  0  0
   -7.3180   -1.5980  -21.1480 N   0  0  0  0  0  0  0  0  0  0  0  0
   -6.6180   -1.0790  -20.0290 C   0  0  0  0  0  0  0  0  0  0  0  0
   -5.4980   -0.2230  -20.2620 C   0  0  0  0  0  0  0  0  0  0  0  0
   -4.8540    0.3680  -19.1340 C   0  0  0  0  0  0  0  0  0  0  0  0
   -5.3590    0.0530  -17.8490 C   0  0  0  0  0  0  0  0  0  0  0  0
   -6.3930   -0.7490  -17.6310 N   0  0  0  0  0  0  0  0  0  0  0  0
   -6.9910   -1.2940  -18.7000 C   0  0  0  0  0  0  0  0  0  0  0  0
   -5.0240    0.1100  -21.5540 C   0  0  0  0  0  0  0  0  0  0  0  0
   -3.9820    0.9730  -21.7240 C   0  0  0  0  0  0  0  0  0  0  0  0
   -3.3570    1.5330  -20.6190 C   0  0  0  0  0  0  0  0  0  0  0  0
   -3.7700    1.2520  -19.3440 C   0  0  0  0  0  0  0  0  0  0  0  0
   -1.9870    2.6250  -20.8580 S   0  0  2  0  0  0  0  0  0  0  0  0
   -1.0820    2.0090  -21.7860 O   0  0  0  0  0  0  0  0  0  0  0  0
   -1.4830    3.0080  -19.5700 O   0  0  0  0  0  0  0  0  0  0  0  0
   -2.6910    4.0400  -21.6200 C   0  0  0  0  0  0  0  0  0  0  0  0
  2  1  1  0
  3  2  2  0
  4  2  1  0
  5  4  2  0
  6  5  1  0
  7  6  1  0
  8  7  1  0
  8  9  1  6
 10  9  1  0
 11 10  2  0
 12 10  1  0
 13 12  1  0
 14  3  1  0
 14  6  2  0
 15 14  1  0
 16 15  1  0
 16  8  1  0
 15 17  1  1
 18 17  2  0
 19 17  1  0
 20 19  1  0
 21 20  2  0
 22 21  1  0
 23 22  2  0
 24 23  1  0
 25 24  2  0
 25 20  1  0
 26 21  1  0
 27 26  2  0
 28 27  1  0
 29 28  2  0
 29 22  1  0
 30 28  1  0
 31 30  2  0
 32 30  2  0
 30 33  1  6
M  CHG  1   8   1
M  END
$$$$

     RDKit          3D

 31 35  0  0  0  0  0  0  0  0999 V2000
   -8.4770    2.2670  -25.9830 O   0  0  0  0  0  0  0  0  0  0  0  0
   -7.6820    1.3410  -25.2490 S   0  0  1  0  0  0  0  0  0  0  0  0
   -6.6260    0.6230  -25.8750 O   0  0  0  0  0  0  0  0  0  0  0  0
   -7.0670    2.1830  -24.0330 N   0  0  0  0  0  0  0  0  0  0  0  0
   -7.6240    2.5030  -22.6900 C   0  0  0  0  0  0  0  0  0  0  0  0
   -6.5580    3.5980  -22.5630 C   0  0  0  0  0  0  0  0  0  0  0  0
   -5.8430    2.9860  -23.7730 C   0  0  0  0  0  0  0  0  0  0  0  0
   -8.6690    0.2650  -24.5890 N   0  0  0  0  0  0  0  0  0  0  0  0
  -10.0510    0.2630  -25.0840 C   0  0  0  0  0  0  0  0  0  0  0  0
   -8.1550   -1.0830  -24.2840 C   0  0  0  0  0  0  0  0  0  0  0  0
   -8.9180   -1.6640  -23.0910 C   0  0  2  0  0  0  0  0  0  0  0  0
  -10.4210   -1.4930  -23.2650 C   0  0  0  0  0  0  0  0  0  0  0  0
  -10.9370   -0.5470  -24.1690 C   0  0  0  0  0  0  0  0  0  0  0  0
  -12.3140   -0.3380  -24.2320 C   0  0  0  0  0  0  0  0  0  0  0  0
  -13.1810   -1.0470  -23.4250 C   0  0  0  0  0  0  0  0  0  0  0  0
  -11.3080   -2.2350  -22.4800 C   0  0  0  0  0  0  0  0  0  0  0  0
  -12.6710   -1.9940  -22.5670 C   0  0  0  0  0  0  0  0  0  0  0  0
  -13.7630   -2.8760  -21.5340 Cl  0  0  0  0  0  0  0  0  0  0  0  0
   -8.4510   -0.9720  -21.8080 C   0  0  0  0  0  0  0  0  0  0  0  0
   -9.0650   -0.0240  -21.3180 O   0  0  0  0  0  0  0  0  0  0  0  0
   -7.2770   -1.4330  -21.3010 N   0  0  0  0  0  0  0  0  0  0  0  0
   -6.5510   -0.9090  -20.2010 C   0  0  0  0  0  0  0  0  0  0  0  0
   -5.3750   -0.1290  -20.4540 C   0  0  0  0  0  0  0  0  0  0  0  0
   -4.8210    0.0680  -21.7460 C   0  0  0  0  0  0  0  0  0  0  0  0
   -3.6980    0.8310  -21.9220 C   0  0  0  0  0  0  0  0  0  0  0  0
   -3.0760    1.4390  -20.8380 C   0  0  0  0  0  0  0  0  0  0  0  0
   -3.5670    1.2750  -19.5750 C   0  0  0  0  0  0  0  0  0  0  0  0
   -4.7210    0.4810  -19.3450 C   0  0  0  0  0  0  0  0  0  0  0  0
   -5.2630    0.2620  -18.0540 C   0  0  0  0  0  0  0  0  0  0  0  0
   -6.3440   -0.4670  -17.8170 N   0  0  0  0  0  0  0  0  0  0  0  0
   -6.9590   -1.0250  -18.8690 C   0  0  0  0  0  0  0  0  0  0  0  0
  2  1  2  0
  3  2  2  0
  2  4  1  1
  5  4  1  0
  6  5  1  0
  7  6  1  0
  7  4  1  0
  8  2  1  0
  9  8  1  0
 10  8  1  0
 11 10  1  0
 12 11  1  0
 13 12  2  0
 13  9  1  0
 14 13  1  0
 15 14  2  0
 16 12  1  0
 17 16  2  0
 17 15  1  0
 18 17  1  0
 11 19  1  1
 20 19  2  0
 21 19  1  0
 22 21  1  0
 23 22  1  0
 24 23  2  0
 25 24  1  0
 26 25  2  0
 27 26  1  0
 28 27  2  0
 28 23  1  0
 29 28  1  0
 30 29  2  0
 31 30  1  0
 31 22  2  0
M  END
$$$$

     RDKit          3D

 33 36  0  0  0  0  0  0  0  0999 V2000
  -13.7880   -2.7610  -21.5140 Cl  0  0  0  0  0  0  0  0  0  0  0  0
  -12.6360   -1.9990  -22.5750 C   0  0  0  0  0  0  0  0  0  0  0  0
  -11.2910   -2.2930  -22.4370 C   0  0  0  0  0  0  0  0  0  0  0  0
  -13.0820   -1.0830  -23.4990 C   0  0  0  0  0  0  0  0  0  0  0  0
  -12.1620   -0.4540  -24.3160 C   0  0  0  0  0  0  0  0  0  0  0  0
  -10.7990   -0.7020  -24.1930 C   0  0  0  0  0  0  0  0  0  0  0  0
   -9.8510    0.0610  -25.0850 C   0  0  0  0  0  0  0  0  0  0  0  0
   -8.4660   -0.0940  -24.6270 N   0  0  0  0  0  0  0  0  0  0  0  0
   -7.3990    0.8340  -25.3750 S   0  0  2  0  0  0  0  0  0  0  0  0
   -7.7580    0.8520  -26.7490 O   0  0  0  0  0  0  0  0  0  0  0  0
   -6.0970    0.4250  -24.9720 O   0  0  0  0  0  0  0  0  0  0  0  0
   -7.7060    2.2770  -24.7500 N   0  0  0  0  0  0  0  0  0  0  0  0
   -7.6780    2.6490  -23.3180 C   0  0  0  0  0  0  0  0  0  0  0  0
   -6.3350    3.2230  -22.8830 C   0  0  0  0  0  0  0  0  0  0  0  0
   -6.4250    4.6550  -22.5710 C   0  0  0  0  0  0  0  0  0  0  0  0
   -6.4640    5.7720  -22.3460 N   0  0  0  0  0  0  0  0  0  0  0  0
   -8.1880    3.3430  -25.6340 C   0  0  0  0  0  0  0  0  0  0  0  0
  -10.3530   -1.6310  -23.2350 C   0  0  0  0  0  0  0  0  0  0  0  0
   -8.8650   -1.8950  -23.0630 C   0  0  1  0  0  0  0  0  0  0  0  0
   -8.0960   -1.4890  -24.3220 C   0  0  0  0  0  0  0  0  0  0  0  0
   -8.3430   -1.0970  -21.8650 C   0  0  0  0  0  0  0  0  0  0  0  0
   -8.9150   -0.0870  -21.4490 O   0  0  0  0  0  0  0  0  0  0  0  0
   -7.1990   -1.5820  -21.3120 N   0  0  0  0  0  0  0  0  0  0  0  0
   -6.4880   -1.0740  -20.1910 C   0  0  0  0  0  0  0  0  0  0  0  0
   -5.3460   -0.2420  -20.4150 C   0  0  0  0  0  0  0  0  0  0  0  0
   -4.7650   -0.0260  -21.6900 C   0  0  0  0  0  0  0  0  0  0  0  0
   -3.6960    0.8090  -21.8420 C   0  0  0  0  0  0  0  0  0  0  0  0
   -3.1560    1.4780  -20.7510 C   0  0  0  0  0  0  0  0  0  0  0  0
   -3.6640    1.2900  -19.4970 C   0  0  0  0  0  0  0  0  0  0  0  0
   -4.7600    0.4130  -19.2900 C   0  0  0  0  0  0  0  0  0  0  0  0
   -5.3100    0.1530  -18.0130 C   0  0  0  0  0  0  0  0  0  0  0  0
   -6.3450   -0.6470  -17.7990 N   0  0  0  0  0  0  0  0  0  0  0  0
   -6.9050   -1.2330  -18.8670 C   0  0  0  0  0  0  0  0  0  0  0  0
  2  1  1  0
  3  2  2  0
  4  2  1  0
  5  4  2  0
  6  5  1  0
  7  6  1  0
  8  7  1  0
  9  8  1  0
 10  9  2  0
 11  9  2  0
  9 12  1  1
 13 12  1  0
 14 13  1  0
 15 14  1  0
 16 15  3  0
 17 12  1  0
 18  3  1  0
 18  6  2  0
 19 18  1  0
 20 19  1  0
 20  8  1  0
 19 21  1  1
 22 21  2  0
 23 21  1  0
 24 23  1  0
 25 24  1  0
 26 25  2  0
 27 26  1  0
 28 27  2  0
 29 28  1  0
 30 29  2  0
 30 25  1  0
 31 30  1  0
 32 31  2  0
 33 32  1  0
 33 24  2  0
M  END
$$$$

     RDKit          3D

 33 37  0  0  0  0  0  0  0  0999 V2000
   -8.6150    5.7530  -23.0270 N   0  0  0  0  0  0  0  0  0  0  0  0
   -7.9140    4.8550  -23.0150 C   0  0  0  0  0  0  0  0  0  0  0  0
   -6.9730    3.7280  -22.9590 C   0  0  1  0  0  0  0  0  0  0  0  0
   -5.6130    3.9370  -23.5870 C   0  0  0  0  0  0  0  0  0  0  0  0
   -5.7400    3.9600  -22.1120 C   0  0  0  0  0  0  0  0  0  0  0  0
   -7.6180    2.3470  -22.9730 C   0  0  0  0  0  0  0  0  0  0  0  0
   -7.7930    1.5770  -24.5710 S   0  0  2  0  0  0  0  0  0  0  0  0
   -6.5360    1.0150  -24.9520 O   0  0  0  0  0  0  0  0  0  0  0  0
   -8.4270    2.5170  -25.4400 O   0  0  0  0  0  0  0  0  0  0  0  0
   -8.8260    0.3370  -24.3670 N   0  0  0  0  0  0  0  0  0  0  0  0
  -10.2300    0.5350  -24.7440 C   0  0  0  0  0  0  0  0  0  0  0  0
   -8.4090   -1.0760  -24.2910 C   0  0  0  0  0  0  0  0  0  0  0  0
   -9.1220   -1.6750  -23.0750 C   0  0  2  0  0  0  0  0  0  0  0  0
  -10.6220   -1.4170  -23.1490 C   0  0  0  0  0  0  0  0  0  0  0  0
  -11.1180   -0.3150  -23.8680 C   0  0  0  0  0  0  0  0  0  0  0  0
  -12.4750   -0.0090  -23.7990 C   0  0  0  0  0  0  0  0  0  0  0  0
  -13.3450   -0.7820  -23.0550 C   0  0  0  0  0  0  0  0  0  0  0  0
  -11.5140   -2.2150  -22.4280 C   0  0  0  0  0  0  0  0  0  0  0  0
  -12.8570   -1.8810  -22.3880 C   0  0  0  0  0  0  0  0  0  0  0  0
  -13.9490   -2.8440  -21.4320 Cl  0  0  0  0  0  0  0  0  0  0  0  0
   -8.5510   -0.9870  -21.8330 C   0  0  0  0  0  0  0  0  0  0  0  0
   -9.1070   -0.0280  -21.3110 O   0  0  0  0  0  0  0  0  0  0  0  0
   -7.3690   -1.4870  -21.3820 N   0  0  0  0  0  0  0  0  0  0  0  0
   -6.6040   -1.0170  -20.2860 C   0  0  0  0  0  0  0  0  0  0  0  0
   -5.4530   -0.1980  -20.5340 C   0  0  0  0  0  0  0  0  0  0  0  0
   -4.9180    0.0420  -21.8260 C   0  0  0  0  0  0  0  0  0  0  0  0
   -3.8110    0.8260  -21.9950 C   0  0  0  0  0  0  0  0  0  0  0  0
   -3.1780    1.4060  -20.9020 C   0  0  0  0  0  0  0  0  0  0  0  0
   -3.6560    1.2080  -19.6370 C   0  0  0  0  0  0  0  0  0  0  0  0
   -4.8020    0.4020  -19.4180 C   0  0  0  0  0  0  0  0  0  0  0  0
   -5.3250    0.1400  -18.1270 C   0  0  0  0  0  0  0  0  0  0  0  0
   -6.3750   -0.6330  -17.8920 N   0  0  0  0  0  0  0  0  0  0  0  0
   -6.9850   -1.1880  -18.9510 C   0  0  0  0  0  0  0  0  0  0  0  0
  2  1  3  0
  3  2  1  6
  4  3  1  0
  5  4  1  0
  5  3  1  0
  6  3  1  0
  7  6  1  1
  8  7  2  0
  9  7  2  0
 10  7  1  0
 11 10  1  0
 12 10  1  0
 13 12  1  0
 14 13  1  0
 15 14  2  0
 15 11  1  0
 16 15  1  0
 17 16  2  0
 18 14  1  0
 19 18  2  0
 19 17  1  0
 20 19  1  0
 13 21  1  1
 22 21  2  0
 23 21  1  0
 24 23  1  0
 25 24  1  0
 26 25  2  0
 27 26  1  0
 28 27  2  0
 29 28  1  0
 30 25  1  0
 30 29  2  0
 31 30  1  0
 32 31  2  0
 33 32  1  0
 33 24  2  0
M  END
$$$$

     RDKit          3D

 18 19  0  0  0  0  0  0  0  0999 V2000
   -6.4660   -5.4020  -22.1500 N   0  0  0  0  0  0  0  0  0  0  0  0
   -7.4110   -5.8550  -20.0800 C   0  0  0  0  0  0  0  0  0  0  0  0
   -5.1080   -5.2690  -20.3300 O   0  0  0  0  0  0  0  0  0  0  0  0
   -6.1900   -5.4740  -20.8500 C   0  0  0  0  0  0  0  0  0  0  0  0
   -0.0270   -5.7410  -24.1760 C   0  0  0  0  0  0  0  0  0  0  0  0
    0.6100   -8.2110  -24.9920 C   0  0  0  0  0  0  0  0  0  0  0  0
   -0.5400   -8.6730  -24.1270 C   0  0  0  0  0  0  0  0  0  0  0  0
   -5.5670   -5.5320  -23.2200 C   0  0  0  0  0  0  0  0  0  0  0  0
   -5.5680   -4.5320  -24.1850 C   0  0  0  0  0  0  0  0  0  0  0  0
   -4.6850   -4.6070  -25.2380 C   0  0  0  0  0  0  0  0  0  0  0  0
   -3.8020   -5.6690  -25.3370 C   0  0  0  0  0  0  0  0  0  0  0  0
   -3.7950   -6.6740  -24.3750 C   0  0  0  0  0  0  0  0  0  0  0  0
   -4.6770   -6.5980  -23.2970 C   0  0  0  0  0  0  0  0  0  0  0  0
   -2.8320   -7.8210  -24.4680 C   0  0  0  0  0  0  0  0  0  0  0  0
   -1.1140   -6.4120  -23.3680 C   0  0  0  0  0  0  0  0  0  0  0  0
   -1.5770   -7.6370  -24.0330 N   0  0  0  0  0  0  0  0  0  0  0  0
   -3.2270   -8.8950  -24.9190 O   0  0  0  0  0  0  0  0  0  0  0  0
    1.4450   -6.7650  -24.3220 S   0  0  0  0  0  0  0  0  0  0  0  0
  4  2  1  0
  4  1  1  0
  4  3  2  0
  7  6  1  0
  8  1  1  0
  9  8  2  0
 10  9  1  0
 11 10  2  0
 12 11  1  0
 13  8  1  0
 13 12  2  0
 14 12  1  0
 15  5  1  0
 16 15  1  0
 16 14  1  0
 16  7  1  0
 17 14  2  0
 18  6  1  0
 18  5  1  0
M  END
$$$$

     RDKit          3D

 31 34  0  0  0  0  0  0  0  0999 V2000
   -5.9250    1.7630  -24.7820 O   0  0  0  0  0  0  0  0  0  0  0  0
   -4.6090    1.2060  -24.8390 S   0  0  1  0  0  0  0  0  0  0  0  0
   -4.4580   -0.2050  -25.0040 O   0  0  0  0  0  0  0  0  0  0  0  0
   -3.7250    2.0120  -26.1240 C   0  0  0  0  0  0  0  0  0  0  0  0
   -3.8570    1.6030  -23.4480 N   0  0  0  0  0  0  0  0  0  0  0  0
   -4.2270    1.1690  -22.1320 C   0  0  0  0  0  0  0  0  0  0  0  0
   -3.4770    1.6120  -21.0420 C   0  0  0  0  0  0  0  0  0  0  0  0
   -3.8080    1.2550  -19.7700 C   0  0  0  0  0  0  0  0  0  0  0  0
   -5.3150    0.3420  -21.9240 C   0  0  0  0  0  0  0  0  0  0  0  0
   -5.6920   -0.0590  -20.6180 C   0  0  0  0  0  0  0  0  0  0  0  0
   -4.9220    0.4160  -19.5160 C   0  0  0  0  0  0  0  0  0  0  0  0
   -5.3280    0.0410  -18.2120 C   0  0  0  0  0  0  0  0  0  0  0  0
   -6.3820   -0.7220  -17.9480 N   0  0  0  0  0  0  0  0  0  0  0  0
   -7.0980   -1.1670  -18.9920 C   0  0  0  0  0  0  0  0  0  0  0  0
   -6.8240   -0.8920  -20.3320 C   0  0  0  0  0  0  0  0  0  0  0  0
   -7.6180   -1.3620  -21.4060 N   0  0  0  0  0  0  0  0  0  0  0  0
   -8.7680   -0.8330  -21.8880 C   0  0  0  0  0  0  0  0  0  0  0  0
   -9.3090    0.1660  -21.4300 O   0  0  0  0  0  0  0  0  0  0  0  0
   -9.3740   -1.5700  -23.1300 C   0  0  1  0  0  0  0  0  0  0  0  0
   -9.0630   -2.9360  -22.8580 O   0  0  0  0  0  0  0  0  0  0  0  0
   -9.4470   -3.9000  -23.8490 C   0  0  0  0  0  0  0  0  0  0  0  0
  -10.8760   -1.3820  -23.1950 C   0  0  0  0  0  0  0  0  0  0  0  0
  -11.7060   -2.0270  -22.2850 C   0  0  0  0  0  0  0  0  0  0  0  0
  -13.0540   -1.7320  -22.2710 C   0  0  0  0  0  0  0  0  0  0  0  0
  -14.0820   -2.5860  -21.1510 Cl  0  0  0  0  0  0  0  0  0  0  0  0
  -13.6090   -0.7930  -23.1150 C   0  0  0  0  0  0  0  0  0  0  0  0
  -12.7950   -0.1470  -24.0330 C   0  0  0  0  0  0  0  0  0  0  0  0
  -11.4420   -0.4520  -24.0770 C   0  0  0  0  0  0  0  0  0  0  0  0
  -10.7240    0.1620  -25.0730 O   0  0  0  0  0  0  0  0  0  0  0  0
   -9.3080    0.2980  -24.8050 C   0  0  0  0  0  0  0  0  0  0  0  0
   -8.6790   -1.0160  -24.3830 C   0  0  0  0  0  0  0  0  0  0  0  0
  2  1  2  0
  3  2  2  0
  2  4  1  6
  5  2  1  0
  6  5  1  0
  7  6  2  0
  8  7  1  0
  9  6  1  0
 10  9  2  0
 11 10  1  0
 11  8  2  0
 12 11  1  0
 13 12  2  0
 14 13  1  0
 15 14  2  0
 15 10  1  0
 16 15  1  0
 17 16  1  0
 18 17  2  0
 19 17  1  0
 19 20  1  1
 21 20  1  0
 22 19  1  0
 23 22  2  0
 24 23  1  0
 25 24  1  0
 26 24  2  0
 27 26  1  0
 28 27  2  0
 28 22  1  0
 29 28  1  0
 30 29  1  0
 31 30  1  0
 31 19  1  0
M  END
$$$$

     RDKit          3D

 31 34  0  0  0  0  0  0  0  0999 V2000
   -9.1240   -0.2500  -21.3100 O   0  0  0  0  0  0  0  0  0  0  0  0
   -8.5140   -1.2410  -21.7130 C   0  0  0  0  0  0  0  0  0  0  0  0
   -7.3640   -1.6830  -21.1490 N   0  0  0  0  0  0  0  0  0  0  0  0
   -6.6550   -1.1060  -20.0720 C   0  0  0  0  0  0  0  0  0  0  0  0
   -5.5490   -0.2460  -20.3660 C   0  0  0  0  0  0  0  0  0  0  0  0
   -5.0600   -0.0060  -21.6780 C   0  0  0  0  0  0  0  0  0  0  0  0
   -4.0130    0.8440  -21.8910 C   0  0  0  0  0  0  0  0  0  0  0  0
   -3.4120    1.5130  -20.8280 C   0  0  0  0  0  0  0  0  0  0  0  0
   -3.8340    1.3020  -19.5470 C   0  0  0  0  0  0  0  0  0  0  0  0
   -4.9000    0.4070  -19.2780 C   0  0  0  0  0  0  0  0  0  0  0  0
   -5.3650    0.1250  -17.9700 C   0  0  0  0  0  0  0  0  0  0  0  0
   -6.3840   -0.6800  -17.6970 N   0  0  0  0  0  0  0  0  0  0  0  0
   -7.0030   -1.2680  -18.7320 C   0  0  0  0  0  0  0  0  0  0  0  0
   -8.9780   -2.0410  -22.9330 C   0  0  1  0  0  0  0  0  0  0  0  0
  -10.4550   -1.7580  -23.1530 C   0  0  0  0  0  0  0  0  0  0  0  0
  -10.8450   -0.7600  -24.0600 C   0  0  0  0  0  0  0  0  0  0  0  0
  -12.1800   -0.3640  -24.1030 C   0  0  0  0  0  0  0  0  0  0  0  0
  -13.1240   -0.9440  -23.2770 C   0  0  0  0  0  0  0  0  0  0  0  0
  -11.4240   -2.3860  -22.3660 C   0  0  0  0  0  0  0  0  0  0  0  0
  -12.7380   -1.9600  -22.4320 C   0  0  0  0  0  0  0  0  0  0  0  0
  -13.9290   -2.7130  -21.4040 Cl  0  0  0  0  0  0  0  0  0  0  0  0
   -8.1630   -1.6210  -24.1590 C   0  0  0  0  0  0  0  0  0  0  0  0
   -8.4630   -0.2270  -24.4920 N   0  0  2  0  0  0  0  0  0  0  0  0
   -9.8440   -0.1070  -24.9870 C   0  0  0  0  0  0  0  0  0  0  0  0
   -7.4970    0.3740  -25.4090 C   0  0  0  0  0  0  0  0  0  0  0  0
   -6.9120    1.6960  -24.9350 C   0  0  0  0  0  0  0  0  0  0  0  0
   -5.7550    2.0050  -25.2060 O   0  0  0  0  0  0  0  0  0  0  0  0
   -7.7240    2.4710  -24.2170 N   0  0  0  0  0  0  0  0  0  0  0  0
   -7.2540    3.1590  -23.0250 C   0  0  0  0  0  0  0  0  0  0  0  0
   -7.8510    4.5020  -22.8940 C   0  0  0  0  0  0  0  0  0  0  0  0
   -8.3070    5.5410  -22.7490 N   0  0  0  0  0  0  0  0  0  0  0  0
  2  1  2  0
  3  2  1  0
  4  3  1  0
  5  4  1  0
  6  5  2  0
  7  6  1  0
  8  7  2  0
  9  8  1  0
 10  5  1  0
 10  9  2  0
 11 10  1  0
 12 11  2  0
 13 12  1  0
 13  4  2  0
 14  2  1  1
 15 14  1  0
 16 15  1  0
 17 16  2  0
 18 17  1  0
 19 15  2  0
 20 19  1  0
 20 18  2  0
 21 20  1  0
 22 14  1  0
 23 22  1  0
 24 23  1  0
 24 16  1  0
 23 25  1  6
 26 25  1  0
 27 26  2  0
 28 26  1  0
 29 28  1  0
 30 29  1  0
 31 30  3  0
M  CHG  1  23   1
M  END
$$$$

     RDKit          3D

 19 21  0  0  0  0  0  0  0  0999 V2000
   -6.5170   -4.3320  -20.3060 C   0  0  0  0  0  0  0  0  0  0  0  0
   -7.0580   -3.7030  -19.0520 C   0  0  0  0  0  0  0  0  0  0  0  0
   -6.1650   -4.1810  -22.7280 C   0  0  0  0  0  0  0  0  0  0  0  0
   -7.1160   -4.7610  -23.7380 C   0  0  0  0  0  0  0  0  0  0  0  0
   -6.6150   -5.5930  -24.7420 C   0  0  0  0  0  0  0  0  0  0  0  0
   -7.4600   -6.1430  -25.6870 C   0  0  0  0  0  0  0  0  0  0  0  0
   -8.8140   -5.8740  -25.6420 C   0  0  0  0  0  0  0  0  0  0  0  0
   -9.3240   -5.0510  -24.6500 C   0  0  0  0  0  0  0  0  0  0  0  0
   -8.4840   -4.4750  -23.6890 C   0  0  0  0  0  0  0  0  0  0  0  0
   -9.0730   -3.5840  -22.6000 C   0  0  2  0  0  0  0  0  0  0  0  0
  -10.0640   -2.5620  -23.1210 C   0  0  0  0  0  0  0  0  0  0  0  0
  -11.3560   -2.5020  -22.6170 C   0  0  0  0  0  0  0  0  0  0  0  0
  -12.2620   -1.5690  -23.0950 C   0  0  0  0  0  0  0  0  0  0  0  0
  -11.8870   -0.6780  -24.0750 C   0  0  0  0  0  0  0  0  0  0  0  0
  -10.6100   -0.7200  -24.5830 C   0  0  0  0  0  0  0  0  0  0  0  0
   -9.7030   -1.6560  -24.1100 C   0  0  0  0  0  0  0  0  0  0  0  0
   -7.9940   -2.8930  -21.7710 C   0  0  0  0  0  0  0  0  0  0  0  0
   -6.8840   -3.8110  -21.5070 N   0  0  0  0  0  0  0  0  0  0  0  0
   -5.7570   -5.2860  -20.2110 O   0  0  0  0  0  0  0  0  0  0  0  0
  2  1  1  0
  4  3  1  0
  5  4  2  0
  6  5  1  0
  7  6  2  0
  8  7  1  0
  9  8  2  0
  9  4  1  0
 10  9  1  0
 10 11  1  6
 12 11  2  0
 13 12  1  0
 14 13  2  0
 15 14  1  0
 16 15  2  0
 16 11  1  0
 17 10  1  0
 18  3  1  0
 18 17  1  0
 18  1  1  0
 19  1  2  0
M  END
$$$$

     RDKit          3D

 21 23  0  0  0  0  0  0  0  0999 V2000
  -11.6560   -1.8770  -23.8370 C   0  0  0  0  0  0  0  0  0  0  0  0
   -5.0810   -0.2050  -21.3170 C   0  0  0  0  0  0  0  0  0  0  0  0
  -12.0390   -2.6510  -24.9740 C   0  0  0  0  0  0  0  0  0  0  0  0
  -13.1690   -3.2940  -24.6490 C   0  0  0  0  0  0  0  0  0  0  0  0
   -4.5470    0.6240  -18.6440 C   0  0  0  0  0  0  0  0  0  0  0  0
  -12.5810   -2.1240  -22.8940 C   0  0  0  0  0  0  0  0  0  0  0  0
   -8.7360   -1.1530  -21.9730 C   0  0  0  0  0  0  0  0  0  0  0  0
   -7.7620   -2.0390  -21.2160 C   0  0  0  0  0  0  0  0  0  0  0  0
   -5.6470   -0.1870  -18.9500 C   0  0  0  0  0  0  0  0  0  0  0  0
   -3.7500    0.9920  -19.6870 C   0  0  0  0  0  0  0  0  0  0  0  0
   -4.0070    0.5820  -20.9950 C   0  0  0  0  0  0  0  0  0  0  0  0
   -9.3140   -1.6710  -23.0800 N   0  0  0  0  0  0  0  0  0  0  0  0
   -7.0350   -1.3320  -20.1730 N   0  0  0  0  0  0  0  0  0  0  0  0
  -10.4470   -1.0040  -23.7120 C   0  0  0  0  0  0  0  0  0  0  0  0
   -7.4650   -1.4070  -18.8840 N   0  0  0  0  0  0  0  0  0  0  0  0
   -7.6430   -2.8080  -24.5450 C   0  0  0  0  0  0  0  0  0  0  0  0
   -5.8960   -0.5800  -20.2520 C   0  0  0  0  0  0  0  0  0  0  0  0
   -8.8830   -2.9430  -23.6880 C   0  0  0  0  0  0  0  0  0  0  0  0
   -6.6340   -0.7220  -18.1470 N   0  0  0  0  0  0  0  0  0  0  0  0
  -13.5300   -2.9910  -23.3670 O   0  0  0  0  0  0  0  0  0  0  0  0
   -8.9690   -0.0100  -21.5980 O   0  0  0  0  0  0  0  0  0  0  0  0
  3  1  1  0
  4  3  2  0
  6  1  2  0
  8  7  1  0
  9  5  1  0
 10  5  2  0
 11 10  1  0
 11  2  2  0
 12  7  1  0
 13  8  1  0
 14  1  1  0
 14 12  1  0
 15 13  1  0
 17 13  1  0
 17  9  2  0
 17  2  1  0
 18 16  1  0
 18 12  1  0
 19 15  2  0
 19  9  1  0
 20  6  1  0
 20  4  1  0
 21  7  2  0
M  END
$$$$

     RDKit          3D

 28 31  0  0  0  0  0  0  0  0999 V2000
  -13.9170   -2.9180  -21.2280 Cl  0  0  0  0  0  0  0  0  0  0  0  0
  -13.0060   -1.9450  -22.3460 C   0  0  0  0  0  0  0  0  0  0  0  0
  -13.6740   -1.0570  -23.1620 C   0  0  0  0  0  0  0  0  0  0  0  0
  -12.9480   -0.2170  -23.9860 C   0  0  0  0  0  0  0  0  0  0  0  0
  -11.5620   -0.2710  -23.9610 C   0  0  0  0  0  0  0  0  0  0  0  0
  -10.9090    0.6020  -24.7920 O   0  0  0  0  0  0  0  0  0  0  0  0
   -9.6770    0.0750  -25.3130 C   0  0  0  0  0  0  0  0  0  0  0  0
   -8.7070   -0.2470  -24.2040 C   0  0  0  0  0  0  0  0  0  0  0  0
  -11.6260   -2.0310  -22.3400 C   0  0  0  0  0  0  0  0  0  0  0  0
  -10.8790   -1.1670  -23.1390 C   0  0  0  0  0  0  0  0  0  0  0  0
   -9.3600   -1.1540  -23.1370 C   0  0  2  0  0  0  0  0  0  0  0  0
   -8.8000   -0.8010  -21.7600 C   0  0  0  0  0  0  0  0  0  0  0  0
   -9.1690    0.1880  -21.1500 O   0  0  0  0  0  0  0  0  0  0  0  0
   -7.7920   -1.6310  -21.2100 N   0  0  0  0  0  0  0  0  0  0  0  0
   -7.5680   -2.9630  -21.6050 C   0  0  0  0  0  0  0  0  0  0  0  0
   -8.4030   -3.5610  -22.2660 O   0  0  0  0  0  0  0  0  0  0  0  0
   -6.3120   -3.6590  -21.1190 C   0  0  0  0  0  0  0  0  0  0  0  0
   -6.6140   -4.9540  -20.3710 C   0  0  0  0  0  0  0  0  0  0  0  0
   -6.9860   -1.0910  -20.1390 C   0  0  0  0  0  0  0  0  0  0  0  0
   -7.3420   -1.2660  -18.8070 C   0  0  0  0  0  0  0  0  0  0  0  0
   -6.7040   -0.6960  -17.7750 N   0  0  0  0  0  0  0  0  0  0  0  0
   -5.6910    0.1160  -18.0510 C   0  0  0  0  0  0  0  0  0  0  0  0
   -5.2300    0.4040  -19.3580 C   0  0  0  0  0  0  0  0  0  0  0  0
   -5.8880   -0.2350  -20.4480 C   0  0  0  0  0  0  0  0  0  0  0  0
   -4.1270    1.2510  -19.6180 C   0  0  0  0  0  0  0  0  0  0  0  0
   -3.6850    1.4410  -20.8940 C   0  0  0  0  0  0  0  0  0  0  0  0
   -4.3060    0.8070  -21.9610 C   0  0  0  0  0  0  0  0  0  0  0  0
   -5.3810   -0.0130  -21.7550 C   0  0  0  0  0  0  0  0  0  0  0  0
  2  1  1  0
  3  2  2  0
  4  3  1  0
  5  4  2  0
  6  5  1  0
  7  6  1  0
  8  7  1  0
  9  2  1  0
 10  9  2  0
 10  5  1  0
 11 10  1  0
 11  8  1  0
 11 12  1  1
 13 12  2  0
 14 12  1  0
 15 14  1  0
 16 15  2  0
 17 15  1  0
 18 17  1  0
 19 14  1  0
 20 19  2  0
 21 20  1  0
 22 21  2  0
 23 22  1  0
 24 19  1  0
 24 23  2  0
 25 23  1  0
 26 25  2  0
 27 26  1  0
 28 24  1  0
 28 27  2  0
M  END
$$$$

     RDKit          3D

 26 29  0  0  0  0  0  0  0  0999 V2000
   -9.2420    0.0850  -21.3680 O   0  0  0  0  0  0  0  0  0  0  0  0
   -8.7360   -0.9460  -21.7910 C   0  0  0  0  0  0  0  0  0  0  0  0
   -9.3540   -1.7000  -22.9920 C   0  0  1  0  0  0  0  0  0  0  0  0
  -10.8570   -1.4470  -23.0460 C   0  0  0  0  0  0  0  0  0  0  0  0
  -11.6910   -2.1230  -22.1620 C   0  0  0  0  0  0  0  0  0  0  0  0
  -13.0500   -1.8890  -22.1930 C   0  0  0  0  0  0  0  0  0  0  0  0
  -14.0760   -2.7760  -21.1010 Cl  0  0  0  0  0  0  0  0  0  0  0  0
  -13.6180   -0.9980  -23.0820 C   0  0  0  0  0  0  0  0  0  0  0  0
  -12.8090   -0.3450  -23.9940 C   0  0  0  0  0  0  0  0  0  0  0  0
  -11.4430   -0.5660  -23.9710 C   0  0  0  0  0  0  0  0  0  0  0  0
  -10.7120    0.1930  -24.8520 O   0  0  0  0  0  0  0  0  0  0  0  0
   -9.2680    0.1830  -24.6880 C   0  0  0  0  0  0  0  0  0  0  0  0
   -8.7130   -1.1680  -24.2940 C   0  0  0  0  0  0  0  0  0  0  0  0
   -9.1080   -3.2260  -22.8840 C   0  0  0  0  0  0  0  0  0  0  0  0
   -7.7340   -3.6490  -23.1570 N   0  0  0  0  0  0  0  0  0  0  0  0
   -7.7280   -1.5130  -21.1190 N   0  0  0  0  0  0  0  0  0  0  0  0
   -6.8090   -1.0730  -20.1670 C   0  0  0  0  0  0  0  0  0  0  0  0
   -5.7620   -0.1510  -20.4840 C   0  0  0  0  0  0  0  0  0  0  0  0
   -5.2940    0.0910  -21.8030 C   0  0  0  0  0  0  0  0  0  0  0  0
   -4.2170    0.9040  -22.0320 C   0  0  0  0  0  0  0  0  0  0  0  0
   -3.5500    1.5070  -20.9770 C   0  0  0  0  0  0  0  0  0  0  0  0
   -3.9690    1.3200  -19.6890 C   0  0  0  0  0  0  0  0  0  0  0  0
   -5.0840    0.4930  -19.4070 C   0  0  0  0  0  0  0  0  0  0  0  0
   -5.5340    0.2260  -18.0920 C   0  0  0  0  0  0  0  0  0  0  0  0
   -6.5290   -0.5990  -17.8000 N   0  0  0  0  0  0  0  0  0  0  0  0
   -7.1160   -1.2400  -18.8180 C   0  0  0  0  0  0  0  0  0  0  0  0
  2  1  2  0
  3  2  1  0
  4  3  1  0
  5  4  2  0
  6  5  1  0
  7  6  1  0
  8  6  2  0
  9  8  1  0
 10  9  2  0
 10  4  1  0
 11 10  1  0
 12 11  1  0
 13 12  1  0
 13  3  1  0
  3 14  1  1
 15 14  1  0
 16  2  1  0
 17 16  1  0
 18 17  1  0
 19 18  2  0
 20 19  1  0
 21 20  2  0
 22 21  1  0
 23 18  1  0
 23 22  2  0
 24 23  1  0
 25 24  2  0
 26 25  1  0
 26 17  2  0
M  CHG  1  15   1
M  END
$$$$

     RDKit          3D

 16 17  0  0  0  0  0  0  0  0999 V2000
   -6.4600   -3.8490  -21.1430 N   0  0  0  0  0  0  0  0  0  0  0  0
   -6.7890   -3.6210  -18.7080 C   0  0  0  0  0  0  0  0  0  0  0  0
   -5.3530   -5.2150  -19.7440 O   0  0  0  0  0  0  0  0  0  0  0  0
   -6.1340   -4.2820  -19.9060 C   0  0  0  0  0  0  0  0  0  0  0  0
   -7.3230   -2.7120  -21.4640 C   0  0  0  0  0  0  0  0  0  0  0  0
   -5.9840   -4.5110  -22.3540 C   0  0  0  0  0  0  0  0  0  0  0  0
   -7.1670   -4.9680  -23.1720 C   0  0  0  0  0  0  0  0  0  0  0  0
   -9.1590   -4.2820  -24.3640 C   0  0  0  0  0  0  0  0  0  0  0  0
   -8.8140   -5.3670  -25.3380 C   0  0  0  0  0  0  0  0  0  0  0  0
   -9.2130   -6.6990  -25.2940 C   0  0  0  0  0  0  0  0  0  0  0  0
   -8.9030   -7.4050  -26.4780 C   0  0  0  0  0  0  0  0  0  0  0  0
   -8.0120   -6.6890  -27.2630 C   0  0  0  0  0  0  0  0  0  0  0  0
   -8.4810   -3.1600  -22.3270 C   0  0  0  0  0  0  0  0  0  0  0  0
   -8.0190   -3.8360  -23.5460 N   0  0  1  0  0  0  0  0  0  0  0  0
   -7.8020   -5.0770  -26.7110 S   0  0  0  0  0  0  0  0  0  0  0  0
   -7.1440   -7.2610  -28.6290 Cl  0  0  0  0  0  0  0  0  0  0  0  0
  4  2  1  0
  4  1  1  0
  4  3  2  0
  5  1  1  0
  6  1  1  0
  7  6  1  0
  9  8  1  0
 10  9  1  0
 11 10  1  0
 12 11  1  0
 13  5  1  0
 14 13  1  0
 14  8  1  1
 14  7  1  0
 15 12  1  0
 15  9  1  0
 16 12  1  0
M  CHG  1  14   1
M  END
$$$$

     RDKit          3D

 30 33  0  0  0  0  0  0  0  0999 V2000
   -9.2340   -0.1410  -21.4950 O   0  0  0  0  0  0  0  0  0  0  0  0
   -8.8090   -1.1490  -22.0510 C   0  0  0  0  0  0  0  0  0  0  0  0
   -7.7940   -2.0580  -21.3600 C   0  0  0  0  0  0  0  0  0  0  0  0
   -7.0890   -1.3610  -20.3080 N   0  0  0  0  0  0  0  0  0  0  0  0
   -5.9540   -0.6120  -20.3740 C   0  0  0  0  0  0  0  0  0  0  0  0
   -5.1440   -0.1870  -21.4170 C   0  0  0  0  0  0  0  0  0  0  0  0
   -4.0740    0.6450  -21.1050 C   0  0  0  0  0  0  0  0  0  0  0  0
   -3.8210    1.0230  -19.7880 C   0  0  0  0  0  0  0  0  0  0  0  0
   -4.6350    0.5830  -18.7500 C   0  0  0  0  0  0  0  0  0  0  0  0
   -5.7130   -0.2430  -19.0550 C   0  0  0  0  0  0  0  0  0  0  0  0
   -6.7010   -0.7790  -18.2610 N   0  0  0  0  0  0  0  0  0  0  0  0
   -7.5240   -1.4390  -19.0270 N   0  0  0  0  0  0  0  0  0  0  0  0
   -9.2070   -1.5200  -23.3030 N   0  0  0  0  0  0  0  0  0  0  0  0
  -10.2690   -0.7540  -23.9440 C   0  0  0  0  0  0  0  0  0  0  0  0
  -11.5060   -1.5800  -24.1660 C   0  0  0  0  0  0  0  0  0  0  0  0
  -12.2380   -2.0480  -23.1140 C   0  0  0  0  0  0  0  0  0  0  0  0
  -13.4680   -3.1030  -23.6160 S   0  0  0  0  0  0  0  0  0  0  0  0
  -13.0490   -2.9470  -25.2810 C   0  0  0  0  0  0  0  0  0  0  0  0
  -11.9830   -2.0880  -25.4110 C   0  0  0  0  0  0  0  0  0  0  0  0
   -8.6640   -2.6360  -24.0090 C   0  0  0  0  0  0  0  0  0  0  0  0
   -9.2510   -3.8950  -23.8990 C   0  0  0  0  0  0  0  0  0  0  0  0
   -8.8150   -4.9400  -24.6940 C   0  0  0  0  0  0  0  0  0  0  0  0
   -7.6030   -2.4520  -24.9000 C   0  0  0  0  0  0  0  0  0  0  0  0
   -7.1670   -3.5010  -25.6900 C   0  0  0  0  0  0  0  0  0  0  0  0
   -7.7830   -4.7460  -25.6080 C   0  0  0  0  0  0  0  0  0  0  0  0
   -7.4960   -5.7790  -26.5310 N   0  0  0  0  0  0  0  0  0  0  0  0
   -6.3490   -5.9650  -27.2600 C   0  0  0  0  0  0  0  0  0  0  0  0
   -5.2720   -5.4330  -26.9970 O   0  0  0  0  0  0  0  0  0  0  0  0
   -6.5000   -6.7970  -28.3040 N   0  0  0  0  0  0  0  0  0  0  0  0
   -5.4070   -7.1090  -29.2090 C   0  0  0  0  0  0  0  0  0  0  0  0
  2  1  2  0
  3  2  1  0
  4  3  1  0
  5  4  1  0
  6  5  2  0
  7  6  1  0
  8  7  2  0
  9  8  1  0
 10  5  1  0
 10  9  2  0
 11 10  1  0
 12 11  2  0
 12  4  1  0
 13  2  1  0
 14 13  1  0
 15 14  1  0
 16 15  2  0
 17 16  1  0
 18 17  1  0
 19 18  2  0
 19 15  1  0
 20 13  1  0
 21 20  2  0
 22 21  1  0
 23 20  1  0
 24 23  2  0
 25 24  1  0
 25 22  2  0
 26 25  1  0
 27 26  1  0
 28 27  2  0
 29 27  1  0
 30 29  1  0
M  END
$$$$

     RDKit          3D

 12 12  0  0  0  0  0  0  0  0999 V2000
   -5.7730   -6.0500  -19.9100 N   0  0  0  0  0  0  0  0  0  0  0  0
   -6.7120   -5.2070  -20.1470 C   0  0  0  0  0  0  0  0  0  0  0  0
   -6.6100   -4.4410  -21.4390 C   0  0  0  0  0  0  0  0  0  0  0  0
   -7.7240   -3.7850  -21.8110 N   0  0  0  0  0  0  0  0  0  0  0  0
   -7.6420   -3.0940  -22.9420 C   0  0  0  0  0  0  0  0  0  0  0  0
   -8.7400   -2.4840  -23.4360 O   0  0  0  0  0  0  0  0  0  0  0  0
   -9.9550   -2.5610  -22.6780 C   0  0  0  0  0  0  0  0  0  0  0  0
   -6.4890   -3.0230  -23.7100 C   0  0  0  0  0  0  0  0  0  0  0  0
   -5.4460   -4.4820  -22.1190 N   0  0  0  0  0  0  0  0  0  0  0  0
   -5.4290   -3.7990  -23.2610 C   0  0  0  0  0  0  0  0  0  0  0  0
   -4.4230   -3.9190  -24.1540 O   0  0  0  0  0  0  0  0  0  0  0  0
   -3.3300   -4.7830  -23.8280 C   0  0  0  0  0  0  0  0  0  0  0  0
  2  1  1  0
  3  2  1  0
  4  3  2  0
  5  4  1  0
  6  5  1  0
  7  6  1  0
  8  5  2  0
  9  3  1  0
 10  8  1  0
 10  9  2  0
 11 10  1  0
 12 11  1  0
M  CHG  1   1   1
M  END
$$$$

     RDKit          3D

 20 22  0  0  0  0  0  0  0  0999 V2000
   -8.7560   -0.0470  -21.1700 O   0  0  0  0  0  0  0  0  0  0  0  0
   -8.5350   -1.2380  -21.3890 C   0  0  0  0  0  0  0  0  0  0  0  0
   -9.1380   -1.9420  -22.3670 N   0  0  0  0  0  0  0  0  0  0  0  0
   -9.9530   -1.4010  -23.3770 C   0  0  0  0  0  0  0  0  0  0  0  0
   -9.3690   -0.9600  -24.5600 C   0  0  0  0  0  0  0  0  0  0  0  0
  -10.1190   -0.2360  -25.4700 C   0  0  0  0  0  0  0  0  0  0  0  0
  -11.4480    0.0370  -25.2180 C   0  0  0  0  0  0  0  0  0  0  0  0
  -12.0370   -0.4220  -24.0580 C   0  0  0  0  0  0  0  0  0  0  0  0
  -11.3000   -1.1460  -23.1370 C   0  0  0  0  0  0  0  0  0  0  0  0
   -7.5020   -2.0220  -20.6060 C   0  0  0  0  0  0  0  0  0  0  0  0
   -6.5970   -1.1630  -19.7560 C   0  0  0  0  0  0  0  0  0  0  0  0
   -5.4960   -0.4490  -20.3220 C   0  0  0  0  0  0  0  0  0  0  0  0
   -5.1670   -0.4910  -21.7030 C   0  0  0  0  0  0  0  0  0  0  0  0
   -4.1160    0.2320  -22.1970 C   0  0  0  0  0  0  0  0  0  0  0  0
   -3.3410    1.0190  -21.3590 C   0  0  0  0  0  0  0  0  0  0  0  0
   -3.6210    1.0990  -20.0270 C   0  0  0  0  0  0  0  0  0  0  0  0
   -4.6980    0.3660  -19.4720 C   0  0  0  0  0  0  0  0  0  0  0  0
   -5.0410    0.4080  -18.1030 C   0  0  0  0  0  0  0  0  0  0  0  0
   -6.0560   -0.2580  -17.5750 N   0  0  0  0  0  0  0  0  0  0  0  0
   -6.7970   -1.0110  -18.3980 C   0  0  0  0  0  0  0  0  0  0  0  0
  2  1  2  0
  3  2  1  0
  4  3  1  0
  5  4  2  0
  6  5  1  0
  7  6  2  0
  8  7  1  0
  9  8  2  0
  9  4  1  0
 10  2  1  0
 11 10  1  0
 12 11  1  0
 13 12  2  0
 14 13  1  0
 15 14  2  0
 16 15  1  0
 17 12  1  0
 17 16  2  0
 18 17  1  0
 19 18  2  0
 20 19  1  0
 20 11  2  0
M  END
$$$$

     RDKit          3D

 20 22  0  0  0  0  0  0  0  0999 V2000
   -8.9030   -0.1930  -21.4960 O   0  0  0  0  0  0  0  0  0  0  0  0
   -8.4050   -1.2700  -21.8150 C   0  0  0  0  0  0  0  0  0  0  0  0
   -8.8490   -2.0380  -23.0440 C   0  0  0  0  0  0  0  0  0  0  0  0
  -10.3260   -1.8290  -23.2690 C   0  0  0  0  0  0  0  0  0  0  0  0
  -10.7840   -0.8740  -24.1670 C   0  0  0  0  0  0  0  0  0  0  0  0
  -12.1340   -0.5650  -24.2480 C   0  0  0  0  0  0  0  0  0  0  0  0
  -13.0500   -1.2150  -23.4360 C   0  0  0  0  0  0  0  0  0  0  0  0
  -11.2490   -2.5060  -22.4790 C   0  0  0  0  0  0  0  0  0  0  0  0
  -12.5870   -2.1890  -22.5720 C   0  0  0  0  0  0  0  0  0  0  0  0
  -13.7230   -3.0570  -21.5800 Cl  0  0  0  0  0  0  0  0  0  0  0  0
   -7.4620   -1.8940  -21.0610 N   0  0  0  0  0  0  0  0  0  0  0  0
   -6.8780   -1.3420  -19.9540 C   0  0  0  0  0  0  0  0  0  0  0  0
   -5.7450   -0.5700  -20.0930 N   0  0  0  0  0  0  0  0  0  0  0  0
   -5.4670   -0.1450  -18.7960 C   0  0  0  0  0  0  0  0  0  0  0  0
   -6.3680   -0.6260  -17.9500 N   0  0  0  0  0  0  0  0  0  0  0  0
   -7.2700   -1.3920  -18.6930 N   0  0  0  0  0  0  0  0  0  0  0  0
   -4.9680   -0.1980  -21.1770 C   0  0  0  0  0  0  0  0  0  0  0  0
   -3.8980    0.6040  -20.9820 C   0  0  0  0  0  0  0  0  0  0  0  0
   -3.5780    1.0540  -19.6800 C   0  0  0  0  0  0  0  0  0  0  0  0
   -4.3460    0.6940  -18.6020 C   0  0  0  0  0  0  0  0  0  0  0  0
  2  1  2  0
  3  2  1  0
  4  3  1  0
  5  4  2  0
  6  5  1  0
  7  6  2  0
  8  4  1  0
  9  8  2  0
  9  7  1  0
 10  9  1  0
 11  2  1  0
 12 11  1  0
 13 12  1  0
 14 13  1  0
 15 14  2  0
 16 15  1  0
 16 12  2  0
 17 13  1  0
 18 17  2  0
 19 18  1  0
 20 14  1  0
 20 19  2  0
M  END
$$$$

     RDKit          3D

 31 35  0  0  0  0  0  0  0  0999 V2000
   -9.3270    0.5260  -21.5770 O   0  0  0  0  0  0  0  0  0  0  0  0
   -8.8910   -0.5340  -21.9890 C   0  0  0  0  0  0  0  0  0  0  0  0
   -7.8300   -1.2090  -21.4690 N   0  0  0  0  0  0  0  0  0  0  0  0
   -7.0070   -0.7540  -20.3840 C   0  0  0  0  0  0  0  0  0  0  0  0
   -5.9010    0.0870  -20.5740 C   0  0  0  0  0  0  0  0  0  0  0  0
   -5.5730    0.6350  -21.9450 C   0  0  0  0  0  0  0  0  0  0  0  0
   -4.1710    1.2180  -22.0410 C   0  0  0  0  0  0  0  0  0  0  0  0
   -3.8730    2.1190  -20.8540 C   0  0  0  0  0  0  0  0  0  0  0  0
   -3.9360    1.3420  -19.5590 C   0  0  0  0  0  0  0  0  0  0  0  0
   -5.1600    0.4670  -19.4410 C   0  0  0  0  0  0  0  0  0  0  0  0
   -5.5860    0.0110  -18.2080 C   0  0  0  0  0  0  0  0  0  0  0  0
   -6.6520   -0.7710  -18.0120 N   0  0  0  0  0  0  0  0  0  0  0  0
   -7.3400   -1.1520  -19.0940 C   0  0  0  0  0  0  0  0  0  0  0  0
   -7.6320   -2.5310  -22.0940 C   0  0  0  0  0  0  0  0  0  0  0  0
   -8.9310   -2.7680  -22.8600 C   0  0  0  0  0  0  0  0  0  0  0  0
   -9.4460   -1.3420  -23.1690 C   0  0  1  0  0  0  0  0  0  0  0  0
  -10.9720   -1.2390  -23.2430 C   0  0  0  0  0  0  0  0  0  0  0  0
  -11.7720   -1.9990  -22.3890 C   0  0  0  0  0  0  0  0  0  0  0  0
  -13.1250   -1.7290  -22.3080 C   0  0  0  0  0  0  0  0  0  0  0  0
  -14.0870   -2.5810  -21.1280 Cl  0  0  0  0  0  0  0  0  0  0  0  0
  -13.7170   -0.7560  -23.0900 C   0  0  0  0  0  0  0  0  0  0  0  0
  -12.9340   -0.0400  -23.9770 C   0  0  0  0  0  0  0  0  0  0  0  0
  -11.5600   -0.2690  -24.0710 C   0  0  0  0  0  0  0  0  0  0  0  0
  -10.7380    0.5130  -25.0750 C   0  0  0  0  0  0  0  0  0  0  0  0
   -8.7820   -0.7440  -24.4380 C   0  0  0  0  0  0  0  0  0  0  0  0
   -9.3160    0.5940  -24.6970 N   0  0  1  0  0  0  0  0  0  0  0  0
   -8.5300    1.4030  -25.6290 C   0  0  0  0  0  0  0  0  0  0  0  0
   -7.5800    2.3950  -24.9720 C   0  0  0  0  0  0  0  0  0  0  0  0
   -6.4340    2.5480  -25.3900 O   0  0  0  0  0  0  0  0  0  0  0  0
   -8.0510    3.0750  -23.9350 N   0  0  0  0  0  0  0  0  0  0  0  0
   -7.2260    3.9910  -23.1700 C   0  0  0  0  0  0  0  0  0  0  0  0
  2  1  2  0
  3  2  1  0
  4  3  1  0
  5  4  1  0
  6  5  1  0
  7  6  1  0
  8  7  1  0
  9  8  1  0
 10  5  2  0
 10  9  1  0
 11 10  1  0
 12 11  2  0
 13 12  1  0
 13  4  2  0
 14  3  1  0
 15 14  1  0
 16 15  1  1
 16  2  1  0
 17 16  1  0
 18 17  2  0
 19 18  1  0
 20 19  1  0
 21 19  2  0
 22 21  1  0
 23 22  2  0
 23 17  1  0
 24 23  1  0
 25 16  1  0
 26 25  1  0
 26 24  1  0
 26 27  1  6
 28 27  1  0
 29 28  2  0
 30 28  1  0
 31 30  1  0
M  CHG  1  26   1
M  END
$$$$

     RDKit          3D

 34 39  0  0  0  0  0  0  0  0999 V2000
   -9.2300    0.4020  -21.5450 O   0  0  0  0  0  0  0  0  0  0  0  0
   -8.8060   -0.6720  -21.9430 C   0  0  0  0  0  0  0  0  0  0  0  0
   -7.7400   -1.3470  -21.4240 N   0  0  0  0  0  0  0  0  0  0  0  0
   -6.9000   -0.8790  -20.3610 C   0  0  0  0  0  0  0  0  0  0  0  0
   -5.7290   -0.0960  -20.5940 C   0  0  0  0  0  0  0  0  0  0  0  0
   -5.2590    0.2710  -21.8830 C   0  0  0  0  0  0  0  0  0  0  0  0
   -4.1520    1.0620  -22.0310 C   0  0  0  0  0  0  0  0  0  0  0  0
   -3.4710    1.5400  -20.9190 C   0  0  0  0  0  0  0  0  0  0  0  0
   -3.8790    1.2120  -19.6570 C   0  0  0  0  0  0  0  0  0  0  0  0
   -5.0040    0.3710  -19.4590 C   0  0  0  0  0  0  0  0  0  0  0  0
   -5.4730   -0.0060  -18.1750 C   0  0  0  0  0  0  0  0  0  0  0  0
   -6.5540   -0.7460  -17.9650 N   0  0  0  0  0  0  0  0  0  0  0  0
   -7.2400   -1.1520  -19.0410 C   0  0  0  0  0  0  0  0  0  0  0  0
   -7.5200   -2.6530  -22.0710 C   0  0  0  0  0  0  0  0  0  0  0  0
   -8.8390   -2.9110  -22.7980 C   0  0  0  0  0  0  0  0  0  0  0  0
   -9.3600   -1.4920  -23.1180 C   0  0  1  0  0  0  0  0  0  0  0  0
  -10.8910   -1.3950  -23.2090 C   0  0  0  0  0  0  0  0  0  0  0  0
  -11.4790   -0.5480  -24.1630 C   0  0  0  0  0  0  0  0  0  0  0  0
  -12.8610   -0.3590  -24.1440 C   0  0  0  0  0  0  0  0  0  0  0  0
  -13.6560   -0.9930  -23.2030 C   0  0  0  0  0  0  0  0  0  0  0  0
  -11.7010   -2.0780  -22.2970 C   0  0  0  0  0  0  0  0  0  0  0  0
  -13.0650   -1.8510  -22.2990 C   0  0  0  0  0  0  0  0  0  0  0  0
  -14.0540   -2.6390  -21.0960 Cl  0  0  0  0  0  0  0  0  0  0  0  0
   -8.6600   -0.9290  -24.3820 C   0  0  0  0  0  0  0  0  0  0  0  0
   -9.2450    0.3610  -24.7400 N   0  0  2  0  0  0  0  0  0  0  0  0
  -10.6390    0.1850  -25.1860 C   0  0  0  0  0  0  0  0  0  0  0  0
   -8.4320    1.1650  -25.6490 C   0  0  0  0  0  0  0  0  0  0  0  0
   -7.4280    2.0530  -24.9300 C   0  0  0  0  0  0  0  0  0  0  0  0
   -6.3060    2.2610  -25.3970 O   0  0  0  0  0  0  0  0  0  0  0  0
   -7.8420    2.5560  -23.7680 N   0  0  0  0  0  0  0  0  0  0  0  0
   -7.0170    3.4180  -22.9290 C   0  0  0  0  0  0  0  0  0  0  0  0
   -7.0390    4.8620  -23.3980 C   0  0  2  0  0  0  0  0  0  0  0  0
   -6.7900    5.9290  -22.3820 C   0  0  0  0  0  0  0  0  0  0  0  0
   -8.1610    5.7410  -22.9510 C   0  0  0  0  0  0  0  0  0  0  0  0
  2  1  2  0
  3  2  1  0
  4  3  1  0
  5  4  1  0
  6  5  2  0
  7  6  1  0
  8  7  2  0
  9  8  1  0
 10  5  1  0
 10  9  2  0
 11 10  1  0
 12 11  2  0
 13 12  1  0
 13  4  2  0
 14  3  1  0
 15 14  1  0
 16 15  1  1
 16  2  1  0
 17 16  1  0
 18 17  1  0
 19 18  2  0
 20 19  1  0
 21 17  2  0
 22 21  1  0
 22 20  2  0
 23 22  1  0
 24 16  1  0
 25 24  1  0
 26 18  1  0
 26 25  1  0
 25 27  1  6
 28 27  1  0
 29 28  2  0
 30 28  1  0
 31 30  1  0
 32 31  1  1
 33 32  1  0
 34 32  1  0
 34 33  1  0
M  CHG  1  25   1
M  END
$$$$

     RDKit          3D

 15 16  0  0  0  0  0  0  0  0999 V2000
  -13.1660   -1.7770  -21.6870 F   0  0  0  0  0  0  0  0  0  0  0  0
  -12.2550   -2.5430  -22.4220 C   0  0  0  0  0  0  0  0  0  0  0  0
  -11.0730   -1.6770  -22.7670 C   0  0  2  0  0  0  0  0  0  0  0  0
  -10.1040   -2.0300  -23.8470 C   0  0  0  0  0  0  0  0  0  0  0  0
   -9.7130   -2.2390  -22.4050 C   0  0  1  0  0  0  0  0  0  0  0  0
   -8.8270   -1.2220  -21.7120 C   0  0  0  0  0  0  0  0  0  0  0  0
   -9.2240   -0.0890  -21.4650 O   0  0  0  0  0  0  0  0  0  0  0  0
   -7.6180   -1.6990  -21.3370 N   0  0  0  0  0  0  0  0  0  0  0  0
   -6.7460   -1.1020  -20.3960 C   0  0  0  0  0  0  0  0  0  0  0  0
   -5.6080   -0.4010  -20.8390 C   0  0  0  0  0  0  0  0  0  0  0  0
   -5.2680   -0.2710  -22.3010 C   0  0  0  0  0  0  0  0  0  0  0  0
   -6.9910   -1.1770  -19.0240 C   0  0  0  0  0  0  0  0  0  0  0  0
   -6.2010   -0.6200  -18.1020 N   0  0  0  0  0  0  0  0  0  0  0  0
   -5.1250    0.0440  -18.5350 C   0  0  0  0  0  0  0  0  0  0  0  0
   -4.7950    0.1760  -19.8700 C   0  0  0  0  0  0  0  0  0  0  0  0
  2  1  1  0
  3  2  1  6
  4  3  1  0
  5  3  1  0
  5  4  1  0
  5  6  1  1
  7  6  2  0
  8  6  1  0
  9  8  1  0
 10  9  2  0
 11 10  1  0
 12  9  1  0
 13 12  2  0
 14 13  1  0
 15 10  1  0
 15 14  2  0
M  END
$$$$

     RDKit          3D

 21 22  0  0  0  0  0  0  0  0999 V2000
  -13.7820   -2.6620  -21.6700 Cl  0  0  0  0  0  0  0  0  0  0  0  0
  -12.4780   -1.9330  -22.5670 C   0  0  0  0  0  0  0  0  0  0  0  0
  -12.7600   -0.9340  -23.4780 C   0  0  0  0  0  0  0  0  0  0  0  0
  -11.7100   -0.3470  -24.1640 C   0  0  0  0  0  0  0  0  0  0  0  0
  -10.4050   -0.7410  -23.9160 C   0  0  0  0  0  0  0  0  0  0  0  0
  -11.1840   -2.3460  -22.3190 C   0  0  0  0  0  0  0  0  0  0  0  0
  -10.1250   -1.7280  -22.9770 C   0  0  0  0  0  0  0  0  0  0  0  0
   -8.6980   -2.0600  -22.6040 C   0  0  0  0  0  0  0  0  0  0  0  0
   -8.1310   -1.0980  -21.5780 C   0  0  0  0  0  0  0  0  0  0  0  0
   -8.7140   -0.0560  -21.2710 O   0  0  0  0  0  0  0  0  0  0  0  0
   -6.9620   -1.4950  -21.0240 N   0  0  0  0  0  0  0  0  0  0  0  0
   -6.3270   -0.8990  -19.9110 C   0  0  0  0  0  0  0  0  0  0  0  0
   -5.2670   -0.0020  -20.0980 C   0  0  0  0  0  0  0  0  0  0  0  0
   -4.7470    0.3050  -21.4760 C   0  0  2  0  0  0  0  0  0  0  0  0
   -3.6900    1.1270  -21.4670 F   0  0  0  0  0  0  0  0  0  0  0  0
   -5.6640    0.9050  -22.2440 F   0  0  0  0  0  0  0  0  0  0  0  0
   -4.3390   -0.7880  -22.1250 F   0  0  0  0  0  0  0  0  0  0  0  0
   -6.7660   -1.1360  -18.6110 C   0  0  0  0  0  0  0  0  0  0  0  0
   -6.2360   -0.5370  -17.5400 N   0  0  0  0  0  0  0  0  0  0  0  0
   -5.2320    0.3230  -17.7460 C   0  0  0  0  0  0  0  0  0  0  0  0
   -4.7080    0.6240  -18.9910 C   0  0  0  0  0  0  0  0  0  0  0  0
  2  1  1  0
  3  2  2  0
  4  3  1  0
  5  4  2  0
  6  2  1  0
  7  6  2  0
  7  5  1  0
  8  7  1  0
  9  8  1  0
 10  9  2  0
 11  9  1  0
 12 11  1  0
 13 12  2  0
 14 13  1  0
 14 15  1  1
 16 14  1  0
 17 14  1  0
 18 12  1  0
 19 18  2  0
 20 19  1  0
 21 20  2  0
 21 13  1  0
M  END
$$$$

     RDKit          3D

 26 28  0  0  0  0  0  0  0  0999 V2000
   -4.0130   -1.3820  -22.7330 F   0  0  0  0  0  0  0  0  0  0  0  0
   -3.6730   -0.4450  -21.8230 C   0  0  0  0  0  0  0  0  0  0  0  0
   -2.6910    0.4560  -22.1580 C   0  0  0  0  0  0  0  0  0  0  0  0
   -2.3380    1.4200  -21.2330 C   0  0  0  0  0  0  0  0  0  0  0  0
   -2.9800    1.4910  -20.0090 C   0  0  0  0  0  0  0  0  0  0  0  0
   -4.3310   -0.4470  -20.5980 C   0  0  0  0  0  0  0  0  0  0  0  0
   -3.9810    0.5760  -19.6910 C   0  0  0  0  0  0  0  0  0  0  0  0
   -4.6570    0.6730  -18.4800 N   0  0  0  0  0  0  0  0  0  0  0  0
   -5.6620   -0.1670  -18.0830 C   0  0  0  0  0  0  0  0  0  0  0  0
   -6.2940    0.0660  -17.0490 O   0  0  0  0  0  0  0  0  0  0  0  0
   -5.9660   -1.2340  -18.9730 C   0  0  0  0  0  0  0  0  0  0  0  0
   -5.3560   -1.4160  -20.1750 C   0  0  0  0  0  0  0  0  0  0  0  0
   -5.6900   -2.6460  -20.9590 C   0  0  0  0  0  0  0  0  0  0  0  0
   -4.9270   -3.6130  -20.9890 O   0  0  0  0  0  0  0  0  0  0  0  0
   -6.8240   -2.6150  -21.6610 N   0  0  0  0  0  0  0  0  0  0  0  0
   -7.1530   -3.6390  -22.6440 C   0  0  0  0  0  0  0  0  0  0  0  0
   -8.6160   -3.6450  -22.9870 C   0  0  0  0  0  0  0  0  0  0  0  0
   -9.0760   -2.2860  -22.9320 O   0  0  0  0  0  0  0  0  0  0  0  0
  -10.4230   -2.0340  -23.0270 C   0  0  0  0  0  0  0  0  0  0  0  0
  -10.7640   -0.7390  -23.4630 C   0  0  0  0  0  0  0  0  0  0  0  0
   -9.7020    0.0790  -23.7400 O   0  0  0  0  0  0  0  0  0  0  0  0
   -9.9670    1.4610  -23.9890 C   0  0  0  0  0  0  0  0  0  0  0  0
  -11.4210   -2.9260  -22.6620 C   0  0  0  0  0  0  0  0  0  0  0  0
  -12.7450   -2.5260  -22.7060 C   0  0  0  0  0  0  0  0  0  0  0  0
  -13.0830   -1.2550  -23.1380 C   0  0  0  0  0  0  0  0  0  0  0  0
  -12.0990   -0.3620  -23.5310 C   0  0  0  0  0  0  0  0  0  0  0  0
  2  1  1  0
  3  2  2  0
  4  3  1  0
  5  4  2  0
  6  2  1  0
  7  6  2  0
  7  5  1  0
  8  7  1  0
  9  8  1  0
 10  9  2  0
 11  9  1  0
 12 11  2  0
 12  6  1  0
 13 12  1  0
 14 13  2  0
 15 13  1  0
 16 15  1  0
 17 16  1  0
 18 17  1  0
 19 18  1  0
 20 19  2  0
 21 20  1  0
 22 21  1  0
 23 19  1  0
 24 23  2  0
 25 24  1  0
 26 25  2  0
 26 20  1  0
M  END
$$$$

     RDKit          3D

 21 23  0  0  0  0  0  0  0  0999 V2000
   -8.7550   -0.2480  -21.5140 O   0  0  0  0  0  0  0  0  0  0  0  0
   -8.2510   -1.3590  -21.7010 C   0  0  0  0  0  0  0  0  0  0  0  0
   -8.8910   -2.3900  -22.6120 C   0  0  0  0  0  0  0  0  0  0  0  0
  -10.3010   -2.0450  -23.0420 C   0  0  0  0  0  0  0  0  0  0  0  0
  -10.5310   -1.2060  -24.1250 C   0  0  0  0  0  0  0  0  0  0  0  0
  -11.8100   -0.7510  -24.4150 C   0  0  0  0  0  0  0  0  0  0  0  0
  -12.8810   -1.1310  -23.6230 C   0  0  0  0  0  0  0  0  0  0  0  0
  -11.3880   -2.4780  -22.2880 C   0  0  0  0  0  0  0  0  0  0  0  0
  -12.6550   -2.0040  -22.5800 C   0  0  0  0  0  0  0  0  0  0  0  0
  -13.9950   -2.5180  -21.5920 Cl  0  0  0  0  0  0  0  0  0  0  0  0
   -7.1110   -1.7750  -21.0990 N   0  0  0  0  0  0  0  0  0  0  0  0
   -6.3850   -1.1510  -20.0620 C   0  0  0  0  0  0  0  0  0  0  0  0
   -5.2740   -0.3090  -20.4050 C   0  0  0  0  0  0  0  0  0  0  0  0
   -4.7680   -0.1600  -21.7160 C   0  0  0  0  0  0  0  0  0  0  0  0
   -3.7220    0.6850  -21.9460 C   0  0  0  0  0  0  0  0  0  0  0  0
   -3.1770    1.3900  -20.8710 C   0  0  0  0  0  0  0  0  0  0  0  0
   -3.6000    1.2900  -19.6180 N   0  0  0  0  0  0  0  0  0  0  0  0
   -4.6470    0.4340  -19.3700 C   0  0  0  0  0  0  0  0  0  0  0  0
   -5.1710    0.2410  -18.0610 C   0  0  0  0  0  0  0  0  0  0  0  0
   -6.1790   -0.5500  -17.7320 N   0  0  0  0  0  0  0  0  0  0  0  0
   -6.7690   -1.2290  -18.7220 C   0  0  0  0  0  0  0  0  0  0  0  0
  2  1  2  0
  3  2  1  0
  4  3  1  0
  5  4  2  0
  6  5  1  0
  7  6  2  0
  8  4  1  0
  9  8  2  0
  9  7  1  0
 10  9  1  0
 11  2  1  0
 12 11  1  0
 13 12  1  0
 14 13  2  0
 15 14  1  0
 16 15  2  0
 17 16  1  0
 18 17  2  0
 18 13  1  0
 19 18  1  0
 20 19  2  0
 21 20  1  0
 21 12  2  0
M  END
$$$$

     RDKit          3D

 30 33  0  0  0  0  0  0  0  0999 V2000
  -13.7080   -2.8840  -21.6000 Cl  0  0  0  0  0  0  0  0  0  0  0  0
  -12.5830   -2.0330  -22.6210 C   0  0  0  0  0  0  0  0  0  0  0  0
  -11.2330   -2.2950  -22.4990 C   0  0  0  0  0  0  0  0  0  0  0  0
  -13.0630   -1.1150  -23.5260 C   0  0  0  0  0  0  0  0  0  0  0  0
  -12.1720   -0.4700  -24.3610 C   0  0  0  0  0  0  0  0  0  0  0  0
  -10.8020   -0.7190  -24.2820 C   0  0  0  0  0  0  0  0  0  0  0  0
   -9.8910   -0.0730  -25.2980 C   0  0  0  0  0  0  0  0  0  0  0  0
   -8.5000   -0.0980  -24.8310 N   0  0  0  0  0  0  0  0  0  0  0  0
   -7.4170    0.9020  -25.4480 S   0  0  1  0  0  0  0  0  0  0  0  0
   -6.1660    0.6510  -24.8230 O   0  0  0  0  0  0  0  0  0  0  0  0
   -7.5490    0.8780  -26.8640 O   0  0  0  0  0  0  0  0  0  0  0  0
   -7.9980    2.2890  -24.9040 N   0  0  0  0  0  0  0  0  0  0  0  0
   -7.5230    2.7800  -23.6060 C   0  0  0  0  0  0  0  0  0  0  0  0
   -8.3240    3.3300  -25.8850 C   0  0  0  0  0  0  0  0  0  0  0  0
  -10.3220   -1.6230  -23.3160 C   0  0  0  0  0  0  0  0  0  0  0  0
   -8.8290   -1.8360  -23.1260 C   0  0  1  0  0  0  0  0  0  0  0  0
   -8.0500   -1.4260  -24.3780 C   0  0  0  0  0  0  0  0  0  0  0  0
   -8.3390   -1.0420  -21.9150 C   0  0  0  0  0  0  0  0  0  0  0  0
   -8.8970   -0.0080  -21.5370 O   0  0  0  0  0  0  0  0  0  0  0  0
   -7.2330   -1.5560  -21.3170 N   0  0  0  0  0  0  0  0  0  0  0  0
   -6.5380   -1.0450  -20.1970 C   0  0  0  0  0  0  0  0  0  0  0  0
   -5.4060   -0.1940  -20.4170 C   0  0  0  0  0  0  0  0  0  0  0  0
   -4.8650    0.0830  -21.6980 C   0  0  0  0  0  0  0  0  0  0  0  0
   -3.7950    0.9190  -21.8440 C   0  0  0  0  0  0  0  0  0  0  0  0
   -3.2160    1.5300  -20.7360 C   0  0  0  0  0  0  0  0  0  0  0  0
   -3.6980    1.2900  -19.4810 C   0  0  0  0  0  0  0  0  0  0  0  0
   -4.7960    0.4170  -19.2830 C   0  0  0  0  0  0  0  0  0  0  0  0
   -5.3200    0.1100  -18.0040 C   0  0  0  0  0  0  0  0  0  0  0  0
   -6.3500   -0.7020  -17.7970 N   0  0  0  0  0  0  0  0  0  0  0  0
   -6.9340   -1.2470  -18.8730 C   0  0  0  0  0  0  0  0  0  0  0  0
  2  1  1  0
  3  2  2  0
  4  2  1  0
  5  4  2  0
  6  5  1  0
  7  6  1  0
  8  7  1  0
  9  8  1  0
 10  9  2  0
 11  9  2  0
  9 12  1  1
 13 12  1  0
 14 12  1  0
 15  3  1  0
 15  6  2  0
 16 15  1  0
 17 16  1  0
 17  8  1  0
 16 18  1  1
 19 18  2  0
 20 18  1  0
 21 20  1  0
 22 21  1  0
 23 22  2  0
 24 23  1  0
 25 24  2  0
 26 25  1  0
 27 26  2  0
 27 22  1  0
 28 27  1  0
 29 28  2  0
 30 29  1  0
 30 21  2  0
M  END
$$$$

     RDKit          3D

 19 20  0  0  0  0  0  0  0  0999 V2000
  -10.8040   -4.9360  -27.3750 Cl  0  0  0  0  0  0  0  0  0  0  0  0
  -11.5070   -4.0050  -26.0810 C   0  0  0  0  0  0  0  0  0  0  0  0
  -12.8670   -4.0800  -25.8600 C   0  0  0  0  0  0  0  0  0  0  0  0
  -13.4280   -3.2550  -24.8990 C   0  0  0  0  0  0  0  0  0  0  0  0
  -12.6300   -2.3780  -24.1790 C   0  0  0  0  0  0  0  0  0  0  0  0
  -10.6950   -3.1560  -25.3560 C   0  0  0  0  0  0  0  0  0  0  0  0
  -11.2560   -2.3230  -24.3940 C   0  0  0  0  0  0  0  0  0  0  0  0
  -10.3750   -1.3870  -23.5980 C   0  0  0  0  0  0  0  0  0  0  0  0
   -9.2680   -2.1160  -22.7990 C   0  0  0  0  0  0  0  0  0  0  0  0
   -8.5980   -1.2280  -21.7710 C   0  0  0  0  0  0  0  0  0  0  0  0
   -9.1160   -0.1810  -21.3910 O   0  0  0  0  0  0  0  0  0  0  0  0
   -7.4090   -1.6860  -21.3150 N   0  0  0  0  0  0  0  0  0  0  0  0
   -6.6360   -1.0990  -20.2770 C   0  0  0  0  0  0  0  0  0  0  0  0
   -5.4780   -0.3570  -20.5860 C   0  0  0  0  0  0  0  0  0  0  0  0
   -4.9770   -0.2010  -21.9990 C   0  0  0  0  0  0  0  0  0  0  0  0
   -7.0240   -1.1980  -18.9410 C   0  0  0  0  0  0  0  0  0  0  0  0
   -6.3620   -0.6230  -17.9320 N   0  0  0  0  0  0  0  0  0  0  0  0
   -5.2640    0.0790  -18.2370 C   0  0  0  0  0  0  0  0  0  0  0  0
   -4.7940    0.2360  -19.5270 C   0  0  0  0  0  0  0  0  0  0  0  0
  2  1  1  0
  3  2  2  0
  4  3  1  0
  5  4  2  0
  6  2  1  0
  7  5  1  0
  7  6  2  0
  8  7  1  0
  9  8  1  0
 10  9  1  0
 11 10  2  0
 12 10  1  0
 13 12  1  0
 14 13  2  0
 15 14  1  0
 16 13  1  0
 17 16  2  0
 18 17  1  0
 19 14  1  0
 19 18  2  0
M  END
$$$$

     RDKit          3D

 31 34  0  0  0  0  0  0  0  0999 V2000
  -10.3950    1.8540  -24.7660 O   0  0  0  0  0  0  0  0  0  0  0  0
  -10.0400    0.7380  -24.4300 C   0  0  0  0  0  0  0  0  0  0  0  0
   -8.7290    0.3350  -24.5290 N   0  0  0  0  0  0  0  0  0  0  0  0
   -7.7800    1.1410  -25.2780 C   0  0  0  0  0  0  0  0  0  0  0  0
   -7.4020    2.4290  -24.5640 C   0  0  0  0  0  0  0  0  0  0  0  0
   -7.2040    3.4600  -25.2020 O   0  0  0  0  0  0  0  0  0  0  0  0
   -7.2960    2.3830  -23.2400 N   0  0  0  0  0  0  0  0  0  0  0  0
   -6.8790    3.5290  -22.4560 C   0  0  0  0  0  0  0  0  0  0  0  0
  -10.9680   -0.2000  -23.7750 C   0  0  0  0  0  0  0  0  0  0  0  0
  -12.3260    0.1190  -23.7060 C   0  0  0  0  0  0  0  0  0  0  0  0
  -13.2060   -0.7060  -23.0330 C   0  0  0  0  0  0  0  0  0  0  0  0
  -12.7300   -1.8570  -22.4460 C   0  0  0  0  0  0  0  0  0  0  0  0
  -13.8340   -2.8800  -21.5670 Cl  0  0  0  0  0  0  0  0  0  0  0  0
  -11.3910   -2.1980  -22.4970 C   0  0  0  0  0  0  0  0  0  0  0  0
  -10.4870   -1.3500  -23.1360 C   0  0  0  0  0  0  0  0  0  0  0  0
   -8.9970   -1.6030  -23.0330 C   0  0  1  0  0  0  0  0  0  0  0  0
   -8.2970   -1.0410  -24.2700 C   0  0  0  0  0  0  0  0  0  0  0  0
   -8.4380   -0.8560  -21.8210 C   0  0  0  0  0  0  0  0  0  0  0  0
   -8.8730    0.2400  -21.4680 O   0  0  0  0  0  0  0  0  0  0  0  0
   -7.3920   -1.4620  -21.2150 N   0  0  0  0  0  0  0  0  0  0  0  0
   -6.6260   -0.9750  -20.1380 C   0  0  0  0  0  0  0  0  0  0  0  0
   -5.4880   -0.1600  -20.4320 C   0  0  0  0  0  0  0  0  0  0  0  0
   -4.9830    0.0380  -21.7410 C   0  0  0  0  0  0  0  0  0  0  0  0
   -3.8910    0.8200  -21.9630 C   0  0  0  0  0  0  0  0  0  0  0  0
   -3.2830    1.4370  -20.8990 C   0  0  0  0  0  0  0  0  0  0  0  0
   -2.2210    2.2460  -21.1550 F   0  0  0  0  0  0  0  0  0  0  0  0
   -3.6940    1.2970  -19.6130 C   0  0  0  0  0  0  0  0  0  0  0  0
   -4.8170    0.4740  -19.3470 C   0  0  0  0  0  0  0  0  0  0  0  0
   -5.3050    0.2270  -18.0400 C   0  0  0  0  0  0  0  0  0  0  0  0
   -6.3430   -0.5540  -17.7660 N   0  0  0  0  0  0  0  0  0  0  0  0
   -6.9730   -1.1340  -18.7950 C   0  0  0  0  0  0  0  0  0  0  0  0
  2  1  2  0
  3  2  1  0
  4  3  1  0
  5  4  1  0
  6  5  2  0
  7  5  1  0
  8  7  1  0
  9  2  1  0
 10  9  2  0
 11 10  1  0
 12 11  2  0
 13 12  1  0
 14 12  1  0
 15 14  2  0
 15  9  1  0
 16 15  1  0
 17 16  1  0
 17  3  1  0
 16 18  1  1
 19 18  2  0
 20 18  1  0
 21 20  1  0
 22 21  1  0
 23 22  2  0
 24 23  1  0
 25 24  2  0
 26 25  1  0
 27 25  1  0
 28 22  1  0
 28 27  2  0
 29 28  1  0
 30 29  2  0
 31 30  1  0
 31 21  2  0
M  END
$$$$

     RDKit          3D

 17 18  0  0  0  0  0  0  0  0999 V2000
  -21.2210    6.1110  -22.9670 N   0  0  0  0  0  0  0  0  0  0  0  0
  -21.7120    5.0180  -23.6600 C   0  0  0  0  0  0  0  0  0  0  0  0
  -22.0480    0.6260  -26.2780 O   0  0  0  0  0  0  0  0  0  0  0  0
  -21.3450    4.8270  -25.0260 C   0  0  0  0  0  0  0  0  0  0  0  0
  -25.7210    4.0500  -29.4030 C   0  0  0  0  0  0  0  0  0  0  0  0
  -21.8330    3.7320  -25.7330 C   0  0  0  0  0  0  0  0  0  0  0  0
  -22.6830    2.7730  -25.1500 C   0  0  0  0  0  0  0  0  0  0  0  0
  -23.0400    2.9980  -23.7850 C   0  0  0  0  0  0  0  0  0  0  0  0
  -22.5810    4.0790  -23.0440 C   0  0  0  0  0  0  0  0  0  0  0  0
  -24.7310    2.8280  -27.6860 C   0  0  0  0  0  0  0  0  0  0  0  0
  -25.5200    3.4170  -26.6950 C   0  0  0  0  0  0  0  0  0  0  0  0
  -26.4320    4.3550  -27.1300 C   0  0  0  0  0  0  0  0  0  0  0  0
  -26.5490    4.6860  -28.4790 C   0  0  0  0  0  0  0  0  0  0  0  0
  -23.7190    1.9380  -27.4530 N   0  0  0  0  0  0  0  0  0  0  0  0
  -24.8210    3.1240  -29.0480 N   0  0  0  0  0  0  0  0  0  0  0  0
  -24.2590    0.8550  -25.2190 O   0  0  0  0  0  0  0  0  0  0  0  0
  -23.1900    1.4140  -25.9450 S   0  0  1  0  0  0  0  0  0  0  0  0
  2  1  1  0
  4  2  2  0
  6  4  1  0
  7  6  2  0
  8  7  1  0
  9  8  2  0
  9  2  1  0
 11 10  1  0
 12 11  2  0
 13  5  2  0
 13 12  1  0
 14 10  1  0
 15 10  2  0
 15  5  1  0
 17 14  1  6
 17 16  2  0
 17  7  1  0
 17  3  2  0
M  END
$$$$

     RDKit          3D

 28 31  0  0  0  0  0  0  0  0999 V2000
  -14.6620   -2.5730  -23.5180 F   0  0  0  0  0  0  0  0  0  0  0  0
  -13.6030   -2.3230  -22.7470 C   0  0  2  0  0  0  0  0  0  0  0  0
  -12.7650   -3.3470  -22.9460 F   0  0  0  0  0  0  0  0  0  0  0  0
  -14.0380   -2.4160  -21.4880 F   0  0  0  0  0  0  0  0  0  0  0  0
  -12.9750   -0.9950  -23.0400 C   0  0  0  0  0  0  0  0  0  0  0  0
  -13.6910    0.1830  -22.8720 C   0  0  0  0  0  0  0  0  0  0  0  0
  -13.0830    1.4070  -23.0800 C   0  0  0  0  0  0  0  0  0  0  0  0
  -11.7560    1.4650  -23.4720 C   0  0  0  0  0  0  0  0  0  0  0  0
  -11.6430   -0.9260  -23.4390 C   0  0  0  0  0  0  0  0  0  0  0  0
  -11.0230    0.2990  -23.6650 C   0  0  0  0  0  0  0  0  0  0  0  0
   -9.5960    0.3470  -24.1960 C   0  0  1  0  0  0  0  0  0  0  0  0
   -8.9520    1.7240  -24.3310 C   0  0  0  0  0  0  0  0  0  0  0  0
   -8.6790   -0.6390  -23.5520 N   0  0  0  0  0  0  0  0  0  0  0  0
   -8.1150   -1.6980  -24.4380 C   0  0  2  0  0  0  0  0  0  0  0  0
   -8.7950   -1.9880  -25.7350 C   0  0  0  0  0  0  0  0  0  0  0  0
   -8.8870   -2.9660  -24.6030 C   0  0  0  0  0  0  0  0  0  0  0  0
   -8.3190   -0.5340  -22.2340 C   0  0  0  0  0  0  0  0  0  0  0  0
   -8.6120    0.4460  -21.5660 O   0  0  0  0  0  0  0  0  0  0  0  0
   -7.5230   -1.6720  -21.5860 C   0  0  0  0  0  0  0  0  0  0  0  0
   -6.7780   -1.2130  -20.4310 N   0  0  0  0  0  0  0  0  0  0  0  0
   -5.6950   -0.3890  -20.3700 C   0  0  0  0  0  0  0  0  0  0  0  0
   -5.4700   -0.2200  -19.0070 C   0  0  0  0  0  0  0  0  0  0  0  0
   -6.4020   -0.9550  -18.3130 N   0  0  0  0  0  0  0  0  0  0  0  0
   -7.1780   -1.5490  -19.1780 N   0  0  0  0  0  0  0  0  0  0  0  0
   -4.9190    0.2480  -21.3270 C   0  0  0  0  0  0  0  0  0  0  0  0
   -3.9050    1.0880  -20.8840 C   0  0  0  0  0  0  0  0  0  0  0  0
   -3.6760    1.2740  -19.5220 C   0  0  0  0  0  0  0  0  0  0  0  0
   -4.4500    0.6190  -18.5710 C   0  0  0  0  0  0  0  0  0  0  0  0
  2  1  1  6
  3  2  1  0
  4  2  1  0
  5  2  1  0
  6  5  2  0
  7  6  1  0
  8  7  2  0
  9  5  1  0
 10  9  2  0
 10  8  1  0
 11 10  1  0
 11 12  1  1
 13 11  1  0
 14 13  1  1
 15 14  1  0
 16 15  1  0
 16 14  1  0
 17 13  1  0
 18 17  2  0
 19 17  1  0
 20 19  1  0
 21 20  1  0
 22 21  2  0
 23 22  1  0
 24 23  2  0
 24 20  1  0
 25 21  1  0
 26 25  2  0
 27 26  1  0
 28 22  1  0
 28 27  2  0
M  END
$$$$

     RDKit          3D

 21 23  0  0  0  0  0  0  0  0999 V2000
   -8.8810   -0.3260  -21.1480 O   0  0  0  0  0  0  0  0  0  0  0  0
   -8.1960   -1.2510  -21.5790 C   0  0  0  0  0  0  0  0  0  0  0  0
   -8.6190   -2.0650  -22.7890 C   0  0  0  0  0  0  0  0  0  0  0  0
  -10.0400   -1.7950  -23.2330 C   0  0  0  0  0  0  0  0  0  0  0  0
  -10.3060   -1.0530  -24.3780 C   0  0  0  0  0  0  0  0  0  0  0  0
  -11.6100   -0.7290  -24.7210 C   0  0  0  0  0  0  0  0  0  0  0  0
  -12.6590   -1.1480  -23.9190 C   0  0  0  0  0  0  0  0  0  0  0  0
  -11.1100   -2.2370  -22.4630 C   0  0  0  0  0  0  0  0  0  0  0  0
  -12.4240   -1.9240  -22.7870 C   0  0  0  0  0  0  0  0  0  0  0  0
  -13.5680   -2.4490  -21.9540 C   0  0  0  0  0  0  0  0  0  0  0  0
   -7.0160   -1.6230  -21.0320 N   0  0  0  0  0  0  0  0  0  0  0  0
   -6.3300   -1.0220  -19.9490 C   0  0  0  0  0  0  0  0  0  0  0  0
   -5.2570   -0.1210  -20.2340 C   0  0  0  0  0  0  0  0  0  0  0  0
   -4.7560    0.1260  -21.5410 C   0  0  0  0  0  0  0  0  0  0  0  0
   -3.7320    1.0100  -21.7440 C   0  0  0  0  0  0  0  0  0  0  0  0
   -3.1580    1.6870  -20.6760 C   0  0  0  0  0  0  0  0  0  0  0  0
   -3.5990    1.4800  -19.4020 C   0  0  0  0  0  0  0  0  0  0  0  0
   -4.6550    0.5710  -19.1410 C   0  0  0  0  0  0  0  0  0  0  0  0
   -5.1460    0.3040  -17.8400 C   0  0  0  0  0  0  0  0  0  0  0  0
   -6.1310   -0.5430  -17.5740 N   0  0  0  0  0  0  0  0  0  0  0  0
   -6.6930   -1.1840  -18.6090 C   0  0  0  0  0  0  0  0  0  0  0  0
  2  1  2  0
  3  2  1  0
  4  3  1  0
  5  4  2  0
  6  5  1  0
  7  6  2  0
  8  4  1  0
  9  8  2  0
  9  7  1  0
 10  9  1  0
 11  2  1  0
 12 11  1  0
 13 12  1  0
 14 13  2  0
 15 14  1  0
 16 15  2  0
 17 16  1  0
 18 17  2  0
 18 13  1  0
 19 18  1  0
 20 19  2  0
 21 20  1  0
 21 12  2  0
M  END
$$$$

     RDKit          3D

 25 27  0  0  0  0  0  0  0  0999 V2000
  -13.8530   -2.5020  -21.7310 Cl  0  0  0  0  0  0  0  0  0  0  0  0
  -12.5030   -1.9670  -22.6940 C   0  0  0  0  0  0  0  0  0  0  0  0
  -12.7250   -1.0900  -23.7390 C   0  0  0  0  0  0  0  0  0  0  0  0
  -11.6490   -0.7120  -24.5280 C   0  0  0  0  0  0  0  0  0  0  0  0
  -10.3740   -1.1770  -24.2390 C   0  0  0  0  0  0  0  0  0  0  0  0
  -11.2410   -2.4400  -22.3970 C   0  0  0  0  0  0  0  0  0  0  0  0
  -10.1520   -2.0190  -23.1560 C   0  0  0  0  0  0  0  0  0  0  0  0
   -8.7460   -2.3700  -22.7240 C   0  0  0  0  0  0  0  0  0  0  0  0
   -8.2170   -1.3960  -21.6870 C   0  0  0  0  0  0  0  0  0  0  0  0
   -8.7610   -0.3130  -21.4830 O   0  0  0  0  0  0  0  0  0  0  0  0
   -7.1290   -1.8270  -21.0100 N   0  0  0  0  0  0  0  0  0  0  0  0
   -6.4720   -1.1960  -19.9350 C   0  0  0  0  0  0  0  0  0  0  0  0
   -6.8830   -1.2920  -18.6040 C   0  0  0  0  0  0  0  0  0  0  0  0
   -6.3380   -0.6210  -17.5800 N   0  0  0  0  0  0  0  0  0  0  0  0
   -5.3310    0.1970  -17.8520 C   0  0  0  0  0  0  0  0  0  0  0  0
   -5.3770   -0.3260  -20.2260 C   0  0  0  0  0  0  0  0  0  0  0  0
   -4.7990    0.4030  -19.1480 C   0  0  0  0  0  0  0  0  0  0  0  0
   -3.7430    1.3040  -19.4200 C   0  0  0  0  0  0  0  0  0  0  0  0
   -3.2740    1.4640  -20.6890 C   0  0  0  0  0  0  0  0  0  0  0  0
   -4.8460   -0.1400  -21.5280 C   0  0  0  0  0  0  0  0  0  0  0  0
   -3.8000    0.7310  -21.7530 C   0  0  0  0  0  0  0  0  0  0  0  0
   -3.1760    0.8680  -23.0180 N   0  0  0  0  0  0  0  0  0  0  0  0
   -3.4920    0.2680  -24.1990 C   0  0  0  0  0  0  0  0  0  0  0  0
   -4.5650   -0.2970  -24.4040 O   0  0  0  0  0  0  0  0  0  0  0  0
   -2.4110    0.3130  -25.2410 C   0  0  0  0  0  0  0  0  0  0  0  0
  2  1  1  0
  3  2  2  0
  4  3  1  0
  5  4  2  0
  6  2  1  0
  7  6  2  0
  7  5  1  0
  8  7  1  0
  9  8  1  0
 10  9  2  0
 11  9  1  0
 12 11  1  0
 13 12  2  0
 14 13  1  0
 15 14  2  0
 16 12  1  0
 17 16  2  0
 17 15  1  0
 18 17  1  0
 19 18  2  0
 20 16  1  0
 21 20  2  0
 21 19  1  0
 22 21  1  0
 23 22  1  0
 24 23  2  0
 25 23  1  0
M  END
$$$$

     RDKit          3D

 21 22  0  0  0  0  0  0  0  0999 V2000
  -13.7670   -2.6400  -21.4610 Cl  0  0  0  0  0  0  0  0  0  0  0  0
  -12.6550   -1.7990  -22.5040 C   0  0  0  0  0  0  0  0  0  0  0  0
  -13.1410   -0.8560  -23.3870 C   0  0  0  0  0  0  0  0  0  0  0  0
  -12.2610   -0.2620  -24.2770 C   0  0  0  0  0  0  0  0  0  0  0  0
  -10.9160   -0.5970  -24.2590 C   0  0  0  0  0  0  0  0  0  0  0  0
  -11.3110   -2.1260  -22.4580 C   0  0  0  0  0  0  0  0  0  0  0  0
  -10.4220   -1.5080  -23.3350 C   0  0  0  0  0  0  0  0  0  0  0  0
   -8.9160   -1.6840  -23.1690 C   0  0  2  0  0  0  0  0  0  0  0  0
   -8.4170   -3.0580  -23.4500 N   0  0  1  0  0  0  0  0  0  0  0  0
   -9.2650   -3.8500  -24.3440 C   0  0  0  0  0  0  0  0  0  0  0  0
   -7.0560   -3.0300  -23.9840 C   0  0  0  0  0  0  0  0  0  0  0  0
   -8.3870   -1.0280  -21.8810 C   0  0  0  0  0  0  0  0  0  0  0  0
   -8.9230   -0.0190  -21.4390 O   0  0  0  0  0  0  0  0  0  0  0  0
   -7.3010   -1.6030  -21.3100 N   0  0  0  0  0  0  0  0  0  0  0  0
   -6.5480   -1.0410  -20.2530 C   0  0  0  0  0  0  0  0  0  0  0  0
   -5.3620   -0.3320  -20.5380 C   0  0  0  0  0  0  0  0  0  0  0  0
   -4.7940   -0.2530  -21.9310 C   0  0  0  0  0  0  0  0  0  0  0  0
   -4.7310    0.3110  -19.4780 C   0  0  0  0  0  0  0  0  0  0  0  0
   -5.2770    0.2400  -18.2120 C   0  0  0  0  0  0  0  0  0  0  0  0
   -6.3980   -0.4370  -17.9280 N   0  0  0  0  0  0  0  0  0  0  0  0
   -7.0020   -1.0720  -18.9350 C   0  0  0  0  0  0  0  0  0  0  0  0
  2  1  1  0
  3  2  2  0
  4  3  1  0
  5  4  2  0
  6  2  1  0
  7  6  2  0
  7  5  1  0
  8  7  1  0
  9  8  1  0
  9 10  1  6
 11  9  1  0
  8 12  1  1
 13 12  2  0
 14 12  1  0
 15 14  1  0
 16 15  2  0
 17 16  1  0
 18 16  1  0
 19 18  2  0
 20 19  1  0
 21 20  2  0
 21 15  1  0
M  CHG  1   9   1
M  END
$$$$

     RDKit          3D

 18 19  0  0  0  0  0  0  0  0999 V2000
  -13.4260   -3.0200  -21.5840 Cl  0  0  0  0  0  0  0  0  0  0  0  0
  -12.2570   -2.2100  -22.5920 C   0  0  0  0  0  0  0  0  0  0  0  0
  -12.6940   -1.3390  -23.5720 C   0  0  0  0  0  0  0  0  0  0  0  0
  -11.7550   -0.7730  -24.4260 C   0  0  0  0  0  0  0  0  0  0  0  0
  -10.4080   -1.0580  -24.2710 C   0  0  0  0  0  0  0  0  0  0  0  0
  -10.9130   -2.4830  -22.4100 C   0  0  0  0  0  0  0  0  0  0  0  0
   -9.9710   -1.8900  -23.2480 C   0  0  0  0  0  0  0  0  0  0  0  0
   -8.4980   -2.0560  -22.9630 C   0  0  0  0  0  0  0  0  0  0  0  0
   -8.0840   -1.2400  -21.7530 C   0  0  0  0  0  0  0  0  0  0  0  0
   -8.7490   -0.2910  -21.3480 O   0  0  0  0  0  0  0  0  0  0  0  0
   -6.9230   -1.6240  -21.1900 N   0  0  0  0  0  0  0  0  0  0  0  0
   -6.2970   -0.9720  -20.1080 C   0  0  0  0  0  0  0  0  0  0  0  0
   -5.1750   -0.1540  -20.3320 C   0  0  0  0  0  0  0  0  0  0  0  0
   -4.5200   -0.0410  -21.6830 C   0  0  0  0  0  0  0  0  0  0  0  0
   -6.8340   -1.0470  -18.8250 C   0  0  0  0  0  0  0  0  0  0  0  0
   -6.3490   -0.3570  -17.7870 N   0  0  0  0  0  0  0  0  0  0  0  0
   -5.2860    0.4240  -18.0100 C   0  0  0  0  0  0  0  0  0  0  0  0
   -4.6780    0.5560  -19.2430 C   0  0  0  0  0  0  0  0  0  0  0  0
  2  1  1  0
  3  2  2  0
  4  3  1  0
  5  4  2  0
  6  2  1  0
  7  6  2  0
  7  5  1  0
  8  7  1  0
  9  8  1  0
 10  9  2  0
 11  9  1  0
 12 11  1  0
 13 12  2  0
 14 13  1  0
 15 12  1  0
 16 15  2  0
 17 16  1  0
 18 17  2  0
 18 13  1  0
M  END
$$$$

     RDKit          3D

 24 27  0  0  0  0  0  0  0  0999 V2000
   -8.5330    0.2790  -21.3180 O   0  0  0  0  0  0  0  0  0  0  0  0
   -7.9480   -0.7840  -21.5090 C   0  0  0  0  0  0  0  0  0  0  0  0
   -8.3200   -1.7320  -22.6490 C   0  0  2  0  0  0  0  0  0  0  0  0
   -7.7690   -1.1510  -23.9430 C   0  0  0  0  0  0  0  0  0  0  0  0
   -8.8530   -0.3390  -24.4790 O   0  0  0  0  0  0  0  0  0  0  0  0
   -9.8070   -1.6630  -22.9020 C   0  0  0  0  0  0  0  0  0  0  0  0
  -10.0400   -0.8240  -23.9740 C   0  0  0  0  0  0  0  0  0  0  0  0
  -11.3170   -0.5410  -24.4230 C   0  0  0  0  0  0  0  0  0  0  0  0
  -12.3920   -1.1170  -23.7630 C   0  0  0  0  0  0  0  0  0  0  0  0
  -10.8830   -2.2530  -22.2530 C   0  0  0  0  0  0  0  0  0  0  0  0
  -12.1600   -1.9640  -22.6900 C   0  0  0  0  0  0  0  0  0  0  0  0
  -13.5110   -2.6630  -21.8500 Cl  0  0  0  0  0  0  0  0  0  0  0  0
   -7.0490   -1.2810  -20.6250 N   0  0  0  0  0  0  0  0  0  0  0  0
   -6.3580   -0.8130  -19.5510 C   0  0  0  0  0  0  0  0  0  0  0  0
   -5.6480    0.3950  -19.5470 N   0  0  0  0  0  0  0  0  0  0  0  0
   -5.4520    0.6360  -18.2080 C   0  0  0  0  0  0  0  0  0  0  0  0
   -5.9550   -0.3100  -17.4720 N   0  0  0  0  0  0  0  0  0  0  0  0
   -6.5150   -1.2500  -18.3160 N   0  0  0  0  0  0  0  0  0  0  0  0
   -5.0640    1.1920  -20.5970 C   0  0  0  0  0  0  0  0  0  0  0  0
   -3.6880    1.4120  -20.6060 C   0  0  0  0  0  0  0  0  0  0  0  0
   -3.1420    2.3180  -21.5060 C   0  0  0  0  0  0  0  0  0  0  0  0
   -3.9530    2.9940  -22.3970 C   0  0  0  0  0  0  0  0  0  0  0  0
   -5.3170    2.7620  -22.4010 C   0  0  0  0  0  0  0  0  0  0  0  0
   -5.8800    1.8610  -21.5090 C   0  0  0  0  0  0  0  0  0  0  0  0
  2  1  2  0
  3  2  1  1
  4  3  1  0
  5  4  1  0
  6  3  1  0
  7  6  2  0
  7  5  1  0
  8  7  1  0
  9  8  2  0
 10  6  1  0
 11  9  1  0
 11 10  2  0
 12 11  1  0
 13  2  1  0
 14 13  1  0
 15 14  1  0
 16 15  1  0
 17 16  2  0
 18 17  1  0
 18 14  2  0
 19 15  1  0
 20 19  2  0
 21 20  1  0
 22 21  2  0
 23 22  1  0
 24 23  2  0
 24 19  1  0
M  END
$$$$

     RDKit          3D

 27 30  0  0  0  0  0  0  0  0999 V2000
   -9.2900    0.2840  -21.4070 O   0  0  0  0  0  0  0  0  0  0  0  0
   -8.9260   -0.7890  -21.8650 C   0  0  0  0  0  0  0  0  0  0  0  0
   -9.7320   -1.4860  -22.9890 C   0  0  2  0  0  0  0  0  0  0  0  0
  -10.9900   -0.6730  -23.3200 C   0  0  0  0  0  0  0  0  0  0  0  0
  -10.8240    0.5630  -23.9440 C   0  0  0  0  0  0  0  0  0  0  0  0
  -11.9010    1.4220  -24.0560 C   0  0  0  0  0  0  0  0  0  0  0  0
  -11.6380    3.0090  -24.7180 Cl  0  0  0  0  0  0  0  0  0  0  0  0
  -13.1600    1.0800  -23.6150 C   0  0  0  0  0  0  0  0  0  0  0  0
  -13.3600   -0.1620  -23.0440 C   0  0  0  0  0  0  0  0  0  0  0  0
  -12.2840   -1.0260  -22.8990 C   0  0  0  0  0  0  0  0  0  0  0  0
  -12.5980   -2.5830  -22.1630 S   0  0  1  0  0  0  0  0  0  0  0  0
  -13.4570   -2.4060  -21.0320 O   0  0  0  0  0  0  0  0  0  0  0  0
  -12.9860   -3.5160  -23.1750 O   0  0  0  0  0  0  0  0  0  0  0  0
  -11.1230   -3.0110  -21.6240 N   0  0  0  0  0  0  0  0  0  0  0  0
  -10.0850   -2.9510  -22.6610 C   0  0  0  0  0  0  0  0  0  0  0  0
   -8.7790   -1.4520  -24.1990 C   0  0  0  0  0  0  0  0  0  0  0  0
   -7.8320   -1.4460  -21.4110 N   0  0  0  0  0  0  0  0  0  0  0  0
   -7.0160   -1.0230  -20.3290 C   0  0  0  0  0  0  0  0  0  0  0  0
   -5.8670   -0.2280  -20.5330 C   0  0  0  0  0  0  0  0  0  0  0  0
   -5.4610    0.1870  -21.9310 C   0  0  0  0  0  0  0  0  0  0  0  0
   -4.0170    0.6440  -22.0170 C   0  0  0  0  0  0  0  0  0  0  0  0
   -3.7020    1.6420  -20.9200 C   0  0  0  0  0  0  0  0  0  0  0  0
   -3.8810    1.0200  -19.5520 C   0  0  0  0  0  0  0  0  0  0  0  0
   -5.1440    0.2050  -19.4090 C   0  0  0  0  0  0  0  0  0  0  0  0
   -5.6100   -0.1590  -18.1600 C   0  0  0  0  0  0  0  0  0  0  0  0
   -6.6950   -0.9100  -17.9460 N   0  0  0  0  0  0  0  0  0  0  0  0
   -7.3730   -1.3370  -19.0180 C   0  0  0  0  0  0  0  0  0  0  0  0
  2  1  2  0
  3  2  1  0
  4  3  1  0
  5  4  2  0
  6  5  1  0
  7  6  1  0
  8  6  2  0
  9  8  1  0
 10  9  2  0
 10  4  1  0
 11 10  1  0
 12 11  2  0
 13 11  2  0
 11 14  1  1
 15 14  1  0
 15  3  1  0
  3 16  1  6
 17  2  1  0
 18 17  1  0
 19 18  1  0
 20 19  1  0
 21 20  1  0
 22 21  1  0
 23 22  1  0
 24 19  2  0
 24 23  1  0
 25 24  1  0
 26 25  2  0
 27 26  1  0
 27 18  2  0
M  END
$$$$

     RDKit          3D

 35 40  0  0  0  0  0  0  0  0999 V2000
   -8.9360    6.1190  -22.7720 N   0  0  0  0  0  0  0  0  0  0  0  0
   -8.3520    5.1460  -22.8460 C   0  0  0  0  0  0  0  0  0  0  0  0
   -7.5490    3.9170  -22.9120 C   0  0  2  0  0  0  0  0  0  0  0  0
   -6.3400    3.8760  -22.0120 C   0  0  0  0  0  0  0  0  0  0  0  0
   -6.1530    4.0630  -23.4650 C   0  0  0  0  0  0  0  0  0  0  0  0
   -8.3380    2.6330  -23.1500 C   0  0  0  0  0  0  0  0  0  0  0  0
   -8.4870    1.9570  -24.7930 S   0  0  1  0  0  0  0  0  0  0  0  0
   -9.3020    2.8370  -25.5680 O   0  0  0  0  0  0  0  0  0  0  0  0
   -7.1830    1.6170  -25.2700 O   0  0  0  0  0  0  0  0  0  0  0  0
   -9.3090    0.5650  -24.6200 N   0  0  0  0  0  0  0  0  0  0  0  0
  -10.7220    0.4750  -25.0050 C   0  0  0  0  0  0  0  0  0  0  0  0
   -8.6840   -0.7530  -24.4080 C   0  0  0  0  0  0  0  0  0  0  0  0
   -9.3510   -1.4340  -23.1850 C   0  0  2  0  0  0  0  0  0  0  0  0
  -10.8800   -1.3560  -23.2380 C   0  0  0  0  0  0  0  0  0  0  0  0
  -11.4910   -0.3440  -23.9940 C   0  0  0  0  0  0  0  0  0  0  0  0
  -12.8570   -0.1210  -23.8480 C   0  0  0  0  0  0  0  0  0  0  0  0
  -13.6180   -0.8940  -22.9930 C   0  0  0  0  0  0  0  0  0  0  0  0
  -11.6610   -2.1810  -22.4260 C   0  0  0  0  0  0  0  0  0  0  0  0
  -13.0130   -1.9170  -22.3050 C   0  0  0  0  0  0  0  0  0  0  0  0
  -13.9590   -2.8660  -21.1950 Cl  0  0  0  0  0  0  0  0  0  0  0  0
   -8.8500   -0.6960  -21.9420 C   0  0  0  0  0  0  0  0  0  0  0  0
   -9.3500    0.2960  -21.4480 O   0  0  0  0  0  0  0  0  0  0  0  0
   -7.7440   -1.3460  -21.4800 N   0  0  0  0  0  0  0  0  0  0  0  0
   -7.4870   -2.6030  -22.2000 C   0  0  0  0  0  0  0  0  0  0  0  0
   -8.7870   -2.8540  -22.9600 C   0  0  0  0  0  0  0  0  0  0  0  0
   -6.9090   -0.9080  -20.3970 C   0  0  0  0  0  0  0  0  0  0  0  0
   -5.7800   -0.0500  -20.5920 C   0  0  0  0  0  0  0  0  0  0  0  0
   -5.2660    0.3130  -21.8640 C   0  0  0  0  0  0  0  0  0  0  0  0
   -4.1740    1.1240  -21.9760 C   0  0  0  0  0  0  0  0  0  0  0  0
   -3.5530    1.6380  -20.8440 C   0  0  0  0  0  0  0  0  0  0  0  0
   -4.0050    1.3140  -19.5980 C   0  0  0  0  0  0  0  0  0  0  0  0
   -5.1160    0.4510  -19.4340 C   0  0  0  0  0  0  0  0  0  0  0  0
   -5.5930    0.0360  -18.1670 C   0  0  0  0  0  0  0  0  0  0  0  0
   -6.6110   -0.7920  -17.9900 N   0  0  0  0  0  0  0  0  0  0  0  0
   -7.2380   -1.2400  -19.0870 C   0  0  0  0  0  0  0  0  0  0  0  0
  2  1  3  0
  3  2  1  1
  4  3  1  0
  5  4  1  0
  5  3  1  0
  6  3  1  0
  7  6  1  1
  8  7  2  0
  9  7  2  0
 10  7  1  0
 11 10  1  0
 12 10  1  0
 13 12  1  6
 14 13  1  0
 15 14  2  0
 15 11  1  0
 16 15  1  0
 17 16  2  0
 18 14  1  0
 19 18  2  0
 19 17  1  0
 20 19  1  0
 21 13  1  0
 22 21  2  0
 23 21  1  0
 24 23  1  0
 25 24  1  0
 25 13  1  0
 26 23  1  0
 27 26  1  0
 28 27  2  0
 29 28  1  0
 30 29  2  0
 31 30  1  0
 32 27  1  0
 32 31  2  0
 33 32  1  0
 34 33  2  0
 35 34  1  0
 35 26  2  0
M  END
$$$$

     RDKit          3D

 22 24  0  0  0  0  0  0  0  0999 V2000
   -8.9150   -0.0170  -21.5380 O   0  0  0  0  0  0  0  0  0  0  0  0
   -8.6950   -1.1410  -21.9720 C   0  0  0  0  0  0  0  0  0  0  0  0
   -7.5700   -1.9840  -21.3690 C   0  0  0  0  0  0  0  0  0  0  0  0
   -6.9520   -1.3130  -20.2440 N   0  0  0  0  0  0  0  0  0  0  0  0
   -5.8550   -0.5080  -20.2200 C   0  0  0  0  0  0  0  0  0  0  0  0
   -5.0010   -0.0200  -21.1970 C   0  0  0  0  0  0  0  0  0  0  0  0
   -3.9730    0.8230  -20.7950 C   0  0  0  0  0  0  0  0  0  0  0  0
   -3.8020    1.1530  -19.4530 C   0  0  0  0  0  0  0  0  0  0  0  0
   -4.6600    0.6570  -18.4800 C   0  0  0  0  0  0  0  0  0  0  0  0
   -5.7070   -0.1730  -18.8760 C   0  0  0  0  0  0  0  0  0  0  0  0
   -6.7210   -0.7680  -18.1610 N   0  0  0  0  0  0  0  0  0  0  0  0
   -7.4610   -1.4460  -18.9930 N   0  0  0  0  0  0  0  0  0  0  0  0
   -9.4150   -1.6640  -22.9930 N   0  0  0  0  0  0  0  0  0  0  0  0
   -9.3710   -3.0540  -23.4310 C   0  0  0  0  0  0  0  0  0  0  0  0
  -10.2830   -0.7860  -23.7930 C   0  0  0  0  0  0  0  0  0  0  0  0
  -11.7000   -0.6810  -23.2760 C   0  0  0  0  0  0  0  0  0  0  0  0
  -12.2550   -1.6800  -22.4800 C   0  0  0  0  0  0  0  0  0  0  0  0
  -13.5570   -1.5460  -22.0560 C   0  0  0  0  0  0  0  0  0  0  0  0
  -14.0840   -2.5250  -21.2740 F   0  0  0  0  0  0  0  0  0  0  0  0
  -14.3470   -0.4800  -22.3810 C   0  0  0  0  0  0  0  0  0  0  0  0
  -13.7960    0.5140  -23.1700 C   0  0  0  0  0  0  0  0  0  0  0  0
  -12.4860    0.4150  -23.6100 C   0  0  0  0  0  0  0  0  0  0  0  0
  2  1  2  0
  3  2  1  0
  4  3  1  0
  5  4  1  0
  6  5  2  0
  7  6  1  0
  8  7  2  0
  9  8  1  0
 10  5  1  0
 10  9  2  0
 11 10  1  0
 12 11  2  0
 12  4  1  0
 13  2  1  0
 14 13  1  0
 15 13  1  0
 16 15  1  0
 17 16  2  0
 18 17  1  0
 19 18  1  0
 20 18  2  0
 21 20  1  0
 22 21  2  0
 22 16  1  0
M  END
$$$$

     RDKit          3D

 24 26  0  0  0  0  0  0  0  0999 V2000
  -13.8510   -2.7200  -21.7740 Cl  0  0  0  0  0  0  0  0  0  0  0  0
  -12.5360   -2.0280  -22.6860 C   0  0  0  0  0  0  0  0  0  0  0  0
  -12.8100   -1.0830  -23.6530 C   0  0  0  0  0  0  0  0  0  0  0  0
  -11.7620   -0.5800  -24.4030 C   0  0  0  0  0  0  0  0  0  0  0  0
  -10.4610   -0.9930  -24.1540 C   0  0  0  0  0  0  0  0  0  0  0  0
  -11.2460   -2.4550  -22.4300 C   0  0  0  0  0  0  0  0  0  0  0  0
  -10.1870   -1.9120  -23.1500 C   0  0  0  0  0  0  0  0  0  0  0  0
   -8.7600   -2.2310  -22.7620 C   0  0  0  0  0  0  0  0  0  0  0  0
   -8.2050   -1.2500  -21.7460 C   0  0  0  0  0  0  0  0  0  0  0  0
   -8.7790   -0.1940  -21.4810 O   0  0  0  0  0  0  0  0  0  0  0  0
   -7.0670   -1.6510  -21.1410 N   0  0  0  0  0  0  0  0  0  0  0  0
   -6.4090   -1.0450  -20.0490 C   0  0  0  0  0  0  0  0  0  0  0  0
   -6.8040   -1.1940  -18.7200 C   0  0  0  0  0  0  0  0  0  0  0  0
   -6.2150   -0.6030  -17.6710 N   0  0  0  0  0  0  0  0  0  0  0  0
   -5.1820    0.1950  -17.9200 C   0  0  0  0  0  0  0  0  0  0  0  0
   -5.2930   -0.1940  -20.3170 C   0  0  0  0  0  0  0  0  0  0  0  0
   -4.6690    0.4540  -19.2150 C   0  0  0  0  0  0  0  0  0  0  0  0
   -3.5600    1.2990  -19.4560 C   0  0  0  0  0  0  0  0  0  0  0  0
   -3.0710    1.4670  -20.7170 C   0  0  0  0  0  0  0  0  0  0  0  0
   -4.7590    0.0160  -21.6140 C   0  0  0  0  0  0  0  0  0  0  0  0
   -3.6520    0.8110  -21.8080 C   0  0  0  0  0  0  0  0  0  0  0  0
   -3.0130    0.9150  -23.1560 C   0  0  0  0  0  0  0  0  0  0  0  0
   -2.0690    1.6800  -23.3550 O   0  0  0  0  0  0  0  0  0  0  0  0
   -3.4930    0.1150  -24.0820 O   0  0  0  0  0  0  0  0  0  0  0  0
  2  1  1  0
  3  2  2  0
  4  3  1  0
  5  4  2  0
  6  2  1  0
  7  6  2  0
  7  5  1  0
  8  7  1  0
  9  8  1  0
 10  9  2  0
 11  9  1  0
 12 11  1  0
 13 12  2  0
 14 13  1  0
 15 14  2  0
 16 12  1  0
 17 16  2  0
 17 15  1  0
 18 17  1  0
 19 18  2  0
 20 16  1  0
 21 20  2  0
 21 19  1  0
 22 21  1  0
 23 22  2  0
 24 22  1  0
M  CHG  1  24  -1
M  END
$$$$

     RDKit          3D

 25 27  0  0  0  0  0  0  0  0999 V2000
   -6.6560   -0.3000  -25.1910 O   0  0  0  0  0  0  0  0  0  0  0  0
   -5.3270   -0.2440  -25.7200 S   0  0  1  0  0  0  0  0  0  0  0  0
   -5.1220    0.1600  -27.0770 O   0  0  0  0  0  0  0  0  0  0  0  0
   -4.4940    0.7820  -24.7940 N   0  0  0  0  0  0  0  0  0  0  0  0
   -3.0690    0.9770  -25.0660 C   0  0  0  0  0  0  0  0  0  0  0  0
   -2.4790    2.1030  -24.2520 C   0  0  0  0  0  0  0  0  0  0  0  0
   -1.0040    2.2810  -24.5210 C   0  0  0  0  0  0  0  0  0  0  0  0
   -0.0600    1.5540  -23.8080 C   0  0  0  0  0  0  0  0  0  0  0  0
    1.2960    1.6860  -24.0840 C   0  0  0  0  0  0  0  0  0  0  0  0
    1.7210    2.5540  -25.0700 C   0  0  0  0  0  0  0  0  0  0  0  0
    0.7930    3.2930  -25.7790 C   0  0  0  0  0  0  0  0  0  0  0  0
   -0.5620    3.1560  -25.5060 C   0  0  0  0  0  0  0  0  0  0  0  0
   -4.6020   -1.8490  -25.5110 C   0  0  0  0  0  0  0  0  0  0  0  0
   -3.8750   -2.3570  -26.5800 C   0  0  0  0  0  0  0  0  0  0  0  0
   -3.2340   -3.5860  -26.4670 C   0  0  0  0  0  0  0  0  0  0  0  0
   -3.3210   -4.3250  -25.2950 C   0  0  0  0  0  0  0  0  0  0  0  0
   -4.0680   -3.8170  -24.2360 C   0  0  0  0  0  0  0  0  0  0  0  0
   -4.7150   -2.5790  -24.3140 C   0  0  0  0  0  0  0  0  0  0  0  0
   -5.4190   -2.1930  -23.1810 N   0  0  0  0  0  0  0  0  0  0  0  0
   -4.3710   -4.5370  -22.6770 S   0  0  0  0  0  0  0  0  0  0  0  0
   -5.3130   -3.1180  -22.2670 C   0  0  0  0  0  0  0  0  0  0  0  0
   -5.9270   -2.9230  -21.0440 N   0  0  0  0  0  0  0  0  0  0  0  0
   -5.8950   -3.7970  -19.9890 C   0  0  0  0  0  0  0  0  0  0  0  0
   -5.2570   -4.8470  -19.9780 O   0  0  0  0  0  0  0  0  0  0  0  0
   -6.7350   -3.3760  -18.8040 C   0  0  0  0  0  0  0  0  0  0  0  0
  2  1  2  0
  3  2  2  0
  2  4  1  1
  5  4  1  0
  6  5  1  0
  7  6  1  0
  8  7  2  0
  9  8  1  0
 10  9  2  0
 11 10  1  0
 12 11  2  0
 12  7  1  0
 13  2  1  0
 14 13  2  0
 15 14  1  0
 16 15  2  0
 17 16  1  0
 18 17  2  0
 18 13  1  0
 19 18  1  0
 20 17  1  0
 21 20  1  0
 21 19  2  0
 22 21  1  0
 23 22  1  0
 24 23  2  0
 25 23  1  0
M  END
$$$$

     RDKit          3D

 15 16  0  0  0  0  0  0  0  0999 V2000
  -22.5790   18.8900   -4.7750 C   0  0  0  0  0  0  0  0  0  0  0  0
  -21.3310   18.0770   -4.9910 C   0  0  1  0  0  0  0  0  0  0  0  0
  -21.6920   16.5720   -4.9630 C   0  0  0  0  0  0  0  0  0  0  0  0
  -22.8400   15.0230   -6.2140 C   0  0  0  0  0  0  0  0  0  0  0  0
  -22.2950   13.7890   -6.9260 C   0  0  0  0  0  0  0  0  0  0  0  0
  -22.8830   12.5760   -6.6290 C   0  0  0  0  0  0  0  0  0  0  0  0
  -22.4400   11.4190   -7.2350 C   0  0  0  0  0  0  0  0  0  0  0  0
  -21.4090   11.4640   -8.1530 C   0  0  0  0  0  0  0  0  0  0  0  0
  -20.8270   12.6560   -8.4600 C   0  0  0  0  0  0  0  0  0  0  0  0
  -21.2690   13.8270   -7.8430 C   0  0  0  0  0  0  0  0  0  0  0  0
  -22.2400   16.9230   -7.2740 C   0  0  0  0  0  0  0  0  0  0  0  0
  -21.1090   17.9590   -7.4010 C   0  0  0  0  0  0  0  0  0  0  0  0
  -21.9980   16.0040   -6.2430 N   0  0  0  0  0  0  0  0  0  0  0  0
  -22.4880   20.0700   -5.4570 O   0  0  0  0  0  0  0  0  0  0  0  0
  -20.6650   18.5070   -6.1660 O   0  0  0  0  0  0  0  0  0  0  0  0
  2  1  1  6
  3  2  1  0
  5  4  1  0
  6  5  2  0
  7  6  1  0
  8  7  2  0
  9  8  1  0
 10  5  1  0
 10  9  2  0
 12 11  1  0
 13  4  1  0
 13 11  1  0
 13  3  1  0
 14  1  1  0
 15 12  1  0
 15  2  1  0
M  END
$$$$

     RDKit          3D

 32 35  0  0  0  0  0  0  0  0999 V2000
  -13.7940   -2.7990  -21.6140 Cl  0  0  0  0  0  0  0  0  0  0  0  0
  -12.6080   -2.0240  -22.6340 C   0  0  0  0  0  0  0  0  0  0  0  0
  -11.2700   -2.3520  -22.4870 C   0  0  0  0  0  0  0  0  0  0  0  0
  -13.0240   -1.1050  -23.5660 C   0  0  0  0  0  0  0  0  0  0  0  0
  -12.0880   -0.5190  -24.3950 C   0  0  0  0  0  0  0  0  0  0  0  0
  -10.7310   -0.8140  -24.2750 C   0  0  0  0  0  0  0  0  0  0  0  0
   -9.7550   -0.1020  -25.1830 C   0  0  0  0  0  0  0  0  0  0  0  0
   -8.3840   -0.2590  -24.6820 N   0  0  0  0  0  0  0  0  0  0  0  0
   -7.2740    0.6180  -25.4280 S   0  0  2  0  0  0  0  0  0  0  0  0
   -7.5290    0.4860  -26.8210 O   0  0  0  0  0  0  0  0  0  0  0  0
   -6.0150    0.2500  -24.8810 O   0  0  0  0  0  0  0  0  0  0  0  0
   -7.5950    2.1260  -25.0050 N   0  0  0  0  0  0  0  0  0  0  0  0
   -8.1050    3.1850  -25.9040 C   0  0  0  0  0  0  0  0  0  0  0  0
   -7.0070    4.0400  -26.5000 C   0  0  0  0  0  0  0  0  0  0  0  0
   -7.3320    4.4270  -27.8320 O   0  0  0  0  0  0  0  0  0  0  0  0
   -7.3650    2.5400  -23.6180 C   0  0  0  0  0  0  0  0  0  0  0  0
  -10.3150   -1.7310  -23.2950 C   0  0  0  0  0  0  0  0  0  0  0  0
   -8.8330   -2.0030  -23.0840 C   0  0  1  0  0  0  0  0  0  0  0  0
   -8.0350   -1.6500  -24.3410 C   0  0  0  0  0  0  0  0  0  0  0  0
   -8.3430   -1.1690  -21.8980 C   0  0  0  0  0  0  0  0  0  0  0  0
   -8.9500   -0.1730  -21.5000 O   0  0  0  0  0  0  0  0  0  0  0  0
   -7.1920   -1.6110  -21.3240 N   0  0  0  0  0  0  0  0  0  0  0  0
   -6.5260   -1.0700  -20.2010 C   0  0  0  0  0  0  0  0  0  0  0  0
   -5.4150   -0.1890  -20.4070 C   0  0  0  0  0  0  0  0  0  0  0  0
   -4.8500    0.0850  -21.6810 C   0  0  0  0  0  0  0  0  0  0  0  0
   -3.7940    0.9430  -21.8110 C   0  0  0  0  0  0  0  0  0  0  0  0
   -3.2610    1.5860  -20.6990 C   0  0  0  0  0  0  0  0  0  0  0  0
   -3.7700    1.3570  -19.4520 C   0  0  0  0  0  0  0  0  0  0  0  0
   -4.8470    0.4530  -19.2690 C   0  0  0  0  0  0  0  0  0  0  0  0
   -5.3950    0.1500  -17.9960 C   0  0  0  0  0  0  0  0  0  0  0  0
   -6.4120   -0.6770  -17.8030 N   0  0  0  0  0  0  0  0  0  0  0  0
   -6.9510   -1.2610  -18.8850 C   0  0  0  0  0  0  0  0  0  0  0  0
  2  1  1  0
  3  2  2  0
  4  2  1  0
  5  4  2  0
  6  5  1  0
  7  6  1  0
  8  7  1  0
  9  8  1  0
 10  9  2  0
 11  9  2  0
  9 12  1  1
 13 12  1  0
 14 13  1  0
 15 14  1  0
 16 12  1  0
 17  3  1  0
 17  6  2  0
 18 17  1  0
 19 18  1  0
 19  8  1  0
 18 20  1  1
 21 20  2  0
 22 20  1  0
 23 22  1  0
 24 23  1  0
 25 24  2  0
 26 25  1  0
 27 26  2  0
 28 27  1  0
 29 28  2  0
 29 24  1  0
 30 29  1  0
 31 30  2  0
 32 31  1  0
 32 23  2  0
M  END
$$$$

     RDKit          3D

 24 27  0  0  0  0  0  0  0  0999 V2000
  -10.0230   -0.6480  -25.1590 O   0  0  0  0  0  0  0  0  0  0  0  0
   -3.7870    0.5360  -21.9350 C   0  0  0  0  0  0  0  0  0  0  0  0
   -3.1730    1.2060  -20.8950 C   0  0  0  0  0  0  0  0  0  0  0  0
   -3.6240    1.0680  -19.6150 C   0  0  0  0  0  0  0  0  0  0  0  0
   -4.7460    0.2520  -19.3320 C   0  0  0  0  0  0  0  0  0  0  0  0
   -8.9320   -0.2950  -21.3910 O   0  0  0  0  0  0  0  0  0  0  0  0
  -11.2230   -2.4880  -22.2230 C   0  0  0  0  0  0  0  0  0  0  0  0
   -5.2870    0.1010  -18.0330 C   0  0  0  0  0  0  0  0  0  0  0  0
   -6.9600   -1.2570  -18.7730 C   0  0  0  0  0  0  0  0  0  0  0  0
   -6.5430   -1.1990  -20.0980 C   0  0  0  0  0  0  0  0  0  0  0  0
  -10.3170   -1.9380  -23.1230 C   0  0  0  0  0  0  0  0  0  0  0  0
   -8.3480   -1.3110  -21.7640 C   0  0  0  0  0  0  0  0  0  0  0  0
  -13.6880   -2.9670  -21.2520 Cl  0  0  0  0  0  0  0  0  0  0  0  0
   -7.2420   -1.7810  -21.1680 N   0  0  0  0  0  0  0  0  0  0  0  0
   -4.8630   -0.2690  -21.7030 C   0  0  0  0  0  0  0  0  0  0  0  0
  -12.5620   -2.1740  -22.3160 C   0  0  0  0  0  0  0  0  0  0  0  0
  -13.0330   -1.2970  -23.2650 C   0  0  0  0  0  0  0  0  0  0  0  0
  -12.1510   -0.7670  -24.1890 C   0  0  0  0  0  0  0  0  0  0  0  0
  -10.8100   -1.1100  -24.1320 C   0  0  0  0  0  0  0  0  0  0  0  0
   -8.6280   -0.4800  -24.8310 C   0  0  0  0  0  0  0  0  0  0  0  0
   -8.0390   -1.7300  -24.2300 C   0  0  0  0  0  0  0  0  0  0  0  0
   -8.8220   -2.1340  -22.9630 C   0  0  2  0  0  0  0  0  0  0  0  0
   -6.3610   -0.6250  -17.7580 N   0  0  0  0  0  0  0  0  0  0  0  0
   -5.3870   -0.4260  -20.3960 C   0  0  0  0  0  0  0  0  0  0  0  0
  3  2  2  0
  4  3  1  0
  5  4  2  0
  8  5  1  0
 10  9  2  0
 11  7  2  0
 12  6  2  0
 14 12  1  0
 14 10  1  0
 15  2  1  0
 16  7  1  0
 16 13  1  0
 17 16  2  0
 18 17  1  0
 19 18  2  0
 19 11  1  0
 19  1  1  0
 20  1  1  0
 21 20  1  0
 22 21  1  0
 22 11  1  0
 22 12  1  1
 23  9  1  0
 23  8  2  0
 24 10  1  0
 24 15  2  0
 24  5  1  0
M  END
$$$$

     RDKit          3D

 31 35  0  0  0  0  0  0  0  0999 V2000
   -5.9290    0.4610  -24.6120 O   0  0  0  0  0  0  0  0  0  0  0  0
   -7.1810    0.8620  -25.1690 S   0  0  2  0  0  0  0  0  0  0  0  0
   -7.3200    0.9570  -26.5860 O   0  0  0  0  0  0  0  0  0  0  0  0
   -7.6320    2.3090  -24.5760 N   0  0  0  0  0  0  0  0  0  0  0  0
   -7.4210    2.7400  -23.1840 C   0  0  2  0  0  0  0  0  0  0  0  0
   -7.3230    4.1920  -22.9040 C   0  0  0  0  0  0  0  0  0  0  0  0
   -6.1140    3.3320  -22.8100 C   0  0  0  0  0  0  0  0  0  0  0  0
   -8.2990   -0.2170  -24.7370 N   0  0  0  0  0  0  0  0  0  0  0  0
   -9.7070    0.0820  -25.0250 C   0  0  0  0  0  0  0  0  0  0  0  0
   -8.0130   -1.5760  -24.2390 C   0  0  0  0  0  0  0  0  0  0  0  0
   -8.8120   -1.9400  -22.9900 C   0  0  2  0  0  0  0  0  0  0  0  0
  -10.2830   -1.6320  -23.1970 C   0  0  0  0  0  0  0  0  0  0  0  0
  -10.6710   -0.6340  -24.1060 C   0  0  0  0  0  0  0  0  0  0  0  0
  -12.0190   -0.2950  -24.2090 C   0  0  0  0  0  0  0  0  0  0  0  0
  -12.9770   -0.9330  -23.4450 C   0  0  0  0  0  0  0  0  0  0  0  0
  -11.2610   -2.2960  -22.4500 C   0  0  0  0  0  0  0  0  0  0  0  0
  -12.5880   -1.9320  -22.5860 C   0  0  0  0  0  0  0  0  0  0  0  0
  -13.8010   -2.7660  -21.6550 Cl  0  0  0  0  0  0  0  0  0  0  0  0
   -8.3200   -1.1490  -21.7750 C   0  0  0  0  0  0  0  0  0  0  0  0
   -8.9300   -0.1780  -21.3430 O   0  0  0  0  0  0  0  0  0  0  0  0
   -7.1570   -1.5950  -21.2360 N   0  0  0  0  0  0  0  0  0  0  0  0
   -6.4650   -1.0600  -20.1210 C   0  0  0  0  0  0  0  0  0  0  0  0
   -5.3090   -0.2480  -20.3500 C   0  0  0  0  0  0  0  0  0  0  0  0
   -4.7440   -0.0210  -21.6310 C   0  0  0  0  0  0  0  0  0  0  0  0
   -3.6630    0.8020  -21.7870 C   0  0  0  0  0  0  0  0  0  0  0  0
   -3.0940    1.4400  -20.6910 C   0  0  0  0  0  0  0  0  0  0  0  0
   -3.5940    1.2440  -19.4370 C   0  0  0  0  0  0  0  0  0  0  0  0
   -4.7050    0.3900  -19.2270 C   0  0  0  0  0  0  0  0  0  0  0  0
   -5.2660    0.1490  -17.9470 C   0  0  0  0  0  0  0  0  0  0  0  0
   -6.3270   -0.6220  -17.7330 N   0  0  0  0  0  0  0  0  0  0  0  0
   -6.9010   -1.1970  -18.8010 C   0  0  0  0  0  0  0  0  0  0  0  0
  2  1  2  0
  3  2  2  0
  2  4  1  1
  5  4  1  6
  6  5  1  0
  7  6  1  0
  7  5  1  0
  8  2  1  0
  9  8  1  0
 10  8  1  0
 11 10  1  0
 12 11  1  0
 13 12  2  0
 13  9  1  0
 14 13  1  0
 15 14  2  0
 16 12  1  0
 17 16  2  0
 17 15  1  0
 18 17  1  0
 11 19  1  1
 20 19  2  0
 21 19  1  0
 22 21  1  0
 23 22  1  0
 24 23  2  0
 25 24  1  0
 26 25  2  0
 27 26  1  0
 28 27  2  0
 28 23  1  0
 29 28  1  0
 30 29  2  0
 31 30  1  0
 31 22  2  0
M  END
$$$$

     RDKit          3D

 20 21  0  0  0  0  0  0  0  0999 V2000
   -7.8050   -4.1780  -20.6350 C   0  0  0  0  0  0  0  0  0  0  0  0
   -7.7670   -2.7710  -21.2050 C   0  0  0  0  0  0  0  0  0  0  0  0
   -6.9210   -1.9740  -20.8240 O   0  0  0  0  0  0  0  0  0  0  0  0
   -8.6630   -2.4610  -22.1770 N   0  0  0  0  0  0  0  0  0  0  0  0
   -8.3150   -1.3560  -23.0880 C   0  0  2  0  0  0  0  0  0  0  0  0
   -8.3050    0.0290  -22.4400 C   0  0  0  0  0  0  0  0  0  0  0  0
   -9.1040    0.3230  -21.5540 O   0  0  0  0  0  0  0  0  0  0  0  0
   -7.3060    0.8370  -22.8360 N   0  0  0  0  0  0  0  0  0  0  0  0
   -7.5110    2.1980  -23.0320 N   0  0  0  0  0  0  0  0  0  0  0  0
   -8.5500    2.9340  -23.4540 C   0  0  0  0  0  0  0  0  0  0  0  0
   -8.6770    4.1240  -23.1540 O   0  0  0  0  0  0  0  0  0  0  0  0
   -9.5560    2.2140  -24.2970 C   0  0  0  0  0  0  0  0  0  0  0  0
   -9.9020   -3.2390  -22.3260 C   0  0  0  0  0  0  0  0  0  0  0  0
  -10.9950   -2.4030  -22.9330 C   0  0  0  0  0  0  0  0  0  0  0  0
  -12.3070   -2.4670  -22.4660 C   0  0  0  0  0  0  0  0  0  0  0  0
  -13.2610   -1.5800  -22.9360 C   0  0  0  0  0  0  0  0  0  0  0  0
  -12.9260   -0.6540  -23.8980 C   0  0  0  0  0  0  0  0  0  0  0  0
  -11.6370   -0.6010  -24.3980 C   0  0  0  0  0  0  0  0  0  0  0  0
  -10.6550   -1.4610  -23.9130 C   0  0  0  0  0  0  0  0  0  0  0  0
   -9.2110   -1.3640  -24.3330 C   0  0  0  0  0  0  0  0  0  0  0  0
  2  1  1  0
  3  2  2  0
  4  2  1  0
  5  4  1  0
  5  6  1  1
  7  6  2  0
  8  6  1  0
  9  8  1  0
 10  9  1  0
 11 10  2  0
 12 10  1  0
 13  4  1  0
 14 13  1  0
 15 14  2  0
 16 15  1  0
 17 16  2  0
 18 17  1  0
 19 18  2  0
 19 14  1  0
 20 19  1  0
 20  5  1  0
M  END
$$$$

     RDKit          3D

 27 31  0  0  0  0  0  0  0  0999 V2000
   -9.0580    0.5600  -21.2800 O   0  0  0  0  0  0  0  0  0  0  0  0
   -8.7040   -0.5070  -21.7360 C   0  0  0  0  0  0  0  0  0  0  0  0
   -9.2790   -1.1960  -22.9960 C   0  0  2  0  0  0  0  0  0  0  0  0
   -8.6470   -0.4640  -24.2010 C   0  0  0  0  0  0  0  0  0  0  0  0
   -9.6560   -0.0460  -25.2510 C   0  0  0  0  0  0  0  0  0  0  0  0
  -10.8050    0.5940  -24.6770 O   0  0  0  0  0  0  0  0  0  0  0  0
  -10.8040   -1.1530  -22.9930 C   0  0  0  0  0  0  0  0  0  0  0  0
  -11.4690   -0.2220  -23.7990 C   0  0  0  0  0  0  0  0  0  0  0  0
  -12.8500   -0.1130  -23.8040 C   0  0  0  0  0  0  0  0  0  0  0  0
  -13.5970   -0.9440  -22.9920 C   0  0  0  0  0  0  0  0  0  0  0  0
  -11.5730   -2.0000  -22.1940 C   0  0  0  0  0  0  0  0  0  0  0  0
  -12.9540   -1.8610  -22.1900 C   0  0  0  0  0  0  0  0  0  0  0  0
  -13.8970   -2.8050  -21.0670 Cl  0  0  0  0  0  0  0  0  0  0  0  0
   -7.7420   -1.3730  -21.2150 N   0  0  0  0  0  0  0  0  0  0  0  0
   -7.7590   -2.6060  -21.8770 C   0  0  0  0  0  0  0  0  0  0  0  0
   -7.0420   -3.5600  -21.6180 O   0  0  0  0  0  0  0  0  0  0  0  0
   -8.7130   -2.5310  -22.8370 N   0  0  0  0  0  0  0  0  0  0  0  0
   -6.8420   -1.0320  -20.1320 C   0  0  0  0  0  0  0  0  0  0  0  0
   -5.7100   -0.1980  -20.3940 C   0  0  0  0  0  0  0  0  0  0  0  0
   -5.2230    0.1180  -21.6890 C   0  0  0  0  0  0  0  0  0  0  0  0
   -4.1420    0.9380  -21.8550 C   0  0  0  0  0  0  0  0  0  0  0  0
   -3.4890    1.4800  -20.7580 C   0  0  0  0  0  0  0  0  0  0  0  0
   -3.9120    1.2050  -19.4900 C   0  0  0  0  0  0  0  0  0  0  0  0
   -5.0300    0.3610  -19.2710 C   0  0  0  0  0  0  0  0  0  0  0  0
   -5.5220    0.0550  -17.9790 C   0  0  0  0  0  0  0  0  0  0  0  0
   -6.5740   -0.7170  -17.7450 N   0  0  0  0  0  0  0  0  0  0  0  0
   -7.2080   -1.2380  -18.8040 C   0  0  0  0  0  0  0  0  0  0  0  0
  2  1  2  0
  3  2  1  0
  3  4  1  6
  5  4  1  0
  6  5  1  0
  7  3  1  0
  8  7  2  0
  8  6  1  0
  9  8  1  0
 10  9  2  0
 11  7  1  0
 12 11  2  0
 12 10  1  0
 13 12  1  0
 14  2  1  0
 15 14  1  0
 16 15  2  0
 17 15  1  0
 17  3  1  0
 18 14  1  0
 19 18  1  0
 20 19  2  0
 21 20  1  0
 22 21  2  0
 23 22  1  0
 24 19  1  0
 24 23  2  0
 25 24  1  0
 26 25  2  0
 27 26  1  0
 27 18  2  0
M  END
$$$$

     RDKit          3D

 35 37  0  0  0  0  0  0  0  0999 V2000
   -5.9420    0.1240  -18.5400 C   0  0  0  0  0  0  0  0  0  0  0  0
   -6.9210   -4.2550  -19.7880 C   0  0  0  0  0  0  0  0  0  0  0  0
   -8.4680   -1.9530  -22.2350 C   0  0  0  0  0  0  0  0  0  0  0  0
   -9.5880    0.7980  -22.5770 C   0  0  0  0  0  0  0  0  0  0  0  0
  -11.7870    3.3390  -23.2190 C   0  0  0  0  0  0  0  0  0  0  0  0
   -5.0020   -0.3070  -20.7450 C   0  0  0  0  0  0  0  0  0  0  0  0
   -4.4810    0.8470  -20.4780 C   0  0  0  0  0  0  0  0  0  0  0  0
  -10.2820   -0.5180  -24.4650 C   0  0  0  0  0  0  0  0  0  0  0  0
   -6.2800   -0.5130  -19.6210 C   0  0  1  0  0  0  0  0  0  0  0  0
   -9.9590   -1.5420  -22.5150 C   0  0  2  0  0  0  0  0  0  0  0  0
  -11.1030   -1.8660  -24.6500 C   0  0  1  0  0  0  0  0  0  0  0  0
  -10.8330   -2.6280  -23.3050 C   0  0  2  0  0  0  0  0  0  0  0  0
  -12.2750   -2.5410  -23.8780 C   0  0  1  0  0  0  0  0  0  0  0  0
  -13.1230   -1.4860  -23.1110 C   0  0  0  0  0  0  0  0  0  0  0  0
  -12.8790   -3.8150  -24.4810 C   0  0  0  0  0  0  0  0  0  0  0  0
   -7.3060    1.6240  -24.3190 C   0  0  0  0  0  0  0  0  0  0  0  0
   -8.3450    3.9570  -24.4770 C   0  0  0  0  0  0  0  0  0  0  0  0
   -7.5390    3.0760  -22.2590 C   0  0  0  0  0  0  0  0  0  0  0  0
   -6.3810   -2.0260  -19.3010 C   0  0  0  0  0  0  0  0  0  0  0  0
   -6.8460   -2.9040  -20.4710 C   0  0  2  0  0  0  0  0  0  0  0  0
   -9.6060    2.0950  -23.4080 C   0  0  2  0  0  0  0  0  0  0  0  0
  -12.6400    4.2640  -22.3530 C   0  0  2  0  0  0  0  0  0  0  0  0
   -8.1900    2.6810  -23.6100 C   0  0  2  0  0  0  0  0  0  0  0  0
   -5.9160   -4.9960  -19.8750 N   0  0  0  0  0  0  0  0  0  0  0  0
   -4.7230    1.0950  -18.9270 N   0  0  0  0  0  0  0  0  0  0  0  0
   -9.9740   -0.4560  -23.2350 N   0  0  0  0  0  0  0  0  0  0  0  0
   -8.1790   -2.4930  -20.8990 N   0  0  0  0  0  0  0  0  0  0  0  0
  -10.4680    2.9930  -22.6880 N   0  0  0  0  0  0  0  0  0  0  0  0
   -6.4040    0.0330  -17.4580 O   0  0  0  0  0  0  0  0  0  0  0  0
   -7.6190   -1.8010  -23.0610 O   0  0  0  0  0  0  0  0  0  0  0  0
   -9.3070    0.7500  -21.4200 O   0  0  0  0  0  0  0  0  0  0  0  0
  -12.1900    2.9270  -24.2580 O   0  0  0  0  0  0  0  0  0  0  0  0
  -12.0440    5.4840  -22.2750 F   0  0  0  0  0  0  0  0  0  0  0  0
  -12.7050    3.7010  -21.1030 F   0  0  0  0  0  0  0  0  0  0  0  0
  -13.8850    4.3640  -22.9050 F   0  0  0  0  0  0  0  0  0  0  0  0
  7  6  1  0
  9  1  1  0
  9  6  1  0
 10  3  1  6
 11  8  1  1
 12 11  1  0
 12 10  1  1
 13 11  1  0
 13 12  1  0
 13 14  1  1
 15 13  1  0
  9 19  1  1
 20 19  1  1
 20  2  1  0
 21  4  1  0
 22  5  1  0
 23 21  1  0
 23 18  1  1
 23 17  1  0
 23 16  1  0
 24  2  1  0
 25  1  1  0
 25  7  1  0
 26 10  1  0
 26  8  1  0
 26  4  1  0
 27  3  1  0
 27 20  1  0
 28  5  1  0
 21 28  1  1
 29  1  2  0
 30  3  2  0
 31  4  2  0
 32  5  2  0
 22 33  1  1
 34 22  1  0
 35 22  1  0
M  CHG  1  24   1
M  END
$$$$

     RDKit          3D

 16 17  0  0  0  0  0  0  0  0999 V2000
  -13.3470   -3.1000  -21.6830 Cl  0  0  0  0  0  0  0  0  0  0  0  0
  -12.1610   -2.1890  -22.5830 C   0  0  0  0  0  0  0  0  0  0  0  0
  -12.5750   -1.1520  -23.3910 C   0  0  0  0  0  0  0  0  0  0  0  0
  -11.6210   -0.4440  -24.1050 C   0  0  0  0  0  0  0  0  0  0  0  0
  -10.2750   -0.7590  -23.9760 C   0  0  0  0  0  0  0  0  0  0  0  0
  -10.8270   -2.5240  -22.4590 C   0  0  0  0  0  0  0  0  0  0  0  0
   -9.8640   -1.7780  -23.1300 C   0  0  0  0  0  0  0  0  0  0  0  0
   -8.4060   -1.9600  -22.7830 C   0  0  0  0  0  0  0  0  0  0  0  0
   -8.0580   -1.4250  -21.3880 C   0  0  2  0  0  0  0  0  0  0  0  0
   -8.4710   -0.0540  -21.2880 O   0  0  0  0  0  0  0  0  0  0  0  0
   -6.5630   -1.5580  -21.1240 C   0  0  0  0  0  0  0  0  0  0  0  0
   -6.1810   -1.0470  -19.8100 N   0  0  0  0  0  0  0  0  0  0  0  0
   -5.1560   -0.1690  -19.6790 N   0  0  0  0  0  0  0  0  0  0  0  0
   -5.1670    0.0740  -18.3890 C   0  0  0  0  0  0  0  0  0  0  0  0
   -6.1170   -0.5770  -17.6850 N   0  0  0  0  0  0  0  0  0  0  0  0
   -6.7230   -1.2750  -18.6180 C   0  0  0  0  0  0  0  0  0  0  0  0
  2  1  1  0
  3  2  2  0
  4  3  1  0
  5  4  2  0
  6  2  1  0
  7  6  2  0
  7  5  1  0
  8  7  1  0
  9  8  1  0
  9 10  1  6
 11  9  1  0
 12 11  1  0
 13 12  1  0
 14 13  2  0
 15 14  1  0
 16 15  2  0
 16 12  1  0
M  END
$$$$

     RDKit          3D

 24 27  0  0  0  0  0  0  0  0999 V2000
   -9.2120   -0.0210  -21.2180 O   0  0  0  0  0  0  0  0  0  0  0  0
   -8.6100   -0.9600  -21.7380 C   0  0  0  0  0  0  0  0  0  0  0  0
   -9.1680   -1.7200  -22.9430 C   0  0  1  0  0  0  0  0  0  0  0  0
  -10.6640   -1.4960  -23.0150 C   0  0  0  0  0  0  0  0  0  0  0  0
  -11.5370   -2.2070  -22.1920 C   0  0  0  0  0  0  0  0  0  0  0  0
   -8.5010   -1.2690  -24.2560 C   0  0  0  0  0  0  0  0  0  0  0  0
   -9.0170    0.0900  -24.6520 C   0  0  0  0  0  0  0  0  0  0  0  0
  -10.4550    0.1100  -24.8440 O   0  0  0  0  0  0  0  0  0  0  0  0
  -11.2130   -0.5960  -23.9390 C   0  0  0  0  0  0  0  0  0  0  0  0
  -12.5850   -0.4000  -24.0280 C   0  0  0  0  0  0  0  0  0  0  0  0
  -13.4320   -1.1090  -23.1960 C   0  0  0  0  0  0  0  0  0  0  0  0
  -12.8980   -2.0060  -22.2940 C   0  0  0  0  0  0  0  0  0  0  0  0
  -13.9620   -2.8880  -21.2340 Cl  0  0  0  0  0  0  0  0  0  0  0  0
   -7.3520   -1.2890  -21.3980 N   0  0  0  0  0  0  0  0  0  0  0  0
   -6.6430   -0.9990  -20.2260 C   0  0  0  0  0  0  0  0  0  0  0  0
   -7.1330   -1.0930  -18.9240 C   0  0  0  0  0  0  0  0  0  0  0  0
   -6.5650   -0.5630  -17.8310 N   0  0  0  0  0  0  0  0  0  0  0  0
   -5.4620    0.1390  -18.0010 C   0  0  0  0  0  0  0  0  0  0  0  0
   -4.8640    0.3810  -19.2590 C   0  0  0  0  0  0  0  0  0  0  0  0
   -5.4570   -0.2210  -20.4040 C   0  0  0  0  0  0  0  0  0  0  0  0
   -3.7790    1.2630  -19.4790 C   0  0  0  0  0  0  0  0  0  0  0  0
   -3.3040    1.5710  -20.6830 N   0  0  0  0  0  0  0  0  0  0  0  0
   -3.8760    0.9870  -21.7460 C   0  0  0  0  0  0  0  0  0  0  0  0
   -4.9140    0.1060  -21.6730 C   0  0  0  0  0  0  0  0  0  0  0  0
  2  1  2  0
  3  2  1  1
  4  3  1  0
  5  4  2  0
  6  3  1  0
  7  6  1  0
  8  7  1  0
  9  8  1  0
  9  4  1  0
 10  9  2  0
 11 10  1  0
 12 11  2  0
 12  5  1  0
 13 12  1  0
 14  2  1  0
 15 14  1  0
 16 15  2  0
 17 16  1  0
 18 17  2  0
 19 18  1  0
 20 15  1  0
 20 19  2  0
 21 19  1  0
 22 21  2  0
 23 22  1  0
 24 20  1  0
 24 23  2  0
M  END
$$$$

     RDKit          3D

 25 28  0  0  0  0  0  0  0  0999 V2000
   -9.2380    0.1840  -21.3260 O   0  0  0  0  0  0  0  0  0  0  0  0
   -8.7470   -0.8590  -21.7420 C   0  0  0  0  0  0  0  0  0  0  0  0
   -9.4160   -1.6690  -22.9190 C   0  0  1  0  0  0  0  0  0  0  0  0
  -10.9270   -1.4620  -22.9010 C   0  0  0  0  0  0  0  0  0  0  0  0
  -11.7590   -2.2770  -22.1360 C   0  0  0  0  0  0  0  0  0  0  0  0
  -13.1190   -2.0360  -22.1290 C   0  0  0  0  0  0  0  0  0  0  0  0
  -14.1430   -3.0410  -21.1380 Cl  0  0  0  0  0  0  0  0  0  0  0  0
  -13.6850   -1.0040  -22.8550 C   0  0  0  0  0  0  0  0  0  0  0  0
  -12.8720   -0.1920  -23.6230 C   0  0  0  0  0  0  0  0  0  0  0  0
  -11.5070   -0.4370  -23.6610 C   0  0  0  0  0  0  0  0  0  0  0  0
  -10.8040    0.3160  -24.5730 O   0  0  0  0  0  0  0  0  0  0  0  0
   -9.3630    0.2070  -24.5520 C   0  0  0  0  0  0  0  0  0  0  0  0
   -8.8800   -1.2020  -24.2760 C   0  0  0  0  0  0  0  0  0  0  0  0
   -9.1140   -3.0590  -22.8050 O   0  0  0  0  0  0  0  0  0  0  0  0
   -7.6320   -1.4040  -21.2120 N   0  0  0  0  0  0  0  0  0  0  0  0
   -6.8850   -0.9390  -20.1170 C   0  0  0  0  0  0  0  0  0  0  0  0
   -5.7580   -0.0960  -20.3660 C   0  0  0  0  0  0  0  0  0  0  0  0
   -5.3210    0.2740  -21.6630 C   0  0  0  0  0  0  0  0  0  0  0  0
   -4.2300    1.0760  -21.8350 C   0  0  0  0  0  0  0  0  0  0  0  0
   -3.5200    1.5490  -20.7400 C   0  0  0  0  0  0  0  0  0  0  0  0
   -3.9030    1.2260  -19.4690 C   0  0  0  0  0  0  0  0  0  0  0  0
   -5.0320    0.3980  -19.2460 C   0  0  0  0  0  0  0  0  0  0  0  0
   -5.4810    0.0300  -17.9560 C   0  0  0  0  0  0  0  0  0  0  0  0
   -6.5300   -0.7460  -17.7260 N   0  0  0  0  0  0  0  0  0  0  0  0
   -7.2020   -1.2160  -18.7880 C   0  0  0  0  0  0  0  0  0  0  0  0
  2  1  2  0
  3  2  1  0
  4  3  1  0
  5  4  2  0
  6  5  1  0
  7  6  1  0
  8  6  2  0
  9  8  1  0
 10  9  2  0
 10  4  1  0
 11 10  1  0
 12 11  1  0
 13 12  1  0
 13  3  1  0
  3 14  1  1
 15  2  1  0
 16 15  1  0
 17 16  1  0
 18 17  2  0
 19 18  1  0
 20 19  2  0
 21 20  1  0
 22 17  1  0
 22 21  2  0
 23 22  1  0
 24 23  2  0
 25 24  1  0
 25 16  2  0
M  END
$$$$

     RDKit          3D

 21 22  0  0  0  0  0  0  0  0999 V2000
  -13.4940   -3.0640  -21.7040 Cl  0  0  0  0  0  0  0  0  0  0  0  0
  -12.3080   -2.0800  -22.5140 C   0  0  0  0  0  0  0  0  0  0  0  0
  -12.7140   -0.9350  -23.1680 C   0  0  0  0  0  0  0  0  0  0  0  0
  -11.7600   -0.1670  -23.8150 C   0  0  0  0  0  0  0  0  0  0  0  0
  -10.4230   -0.5350  -23.7830 C   0  0  0  0  0  0  0  0  0  0  0  0
  -10.9800   -2.4600  -22.4680 C   0  0  0  0  0  0  0  0  0  0  0  0
  -10.0170   -1.6690  -23.0880 C   0  0  0  0  0  0  0  0  0  0  0  0
   -8.5420   -1.9820  -22.8870 C   0  0  1  0  0  0  0  0  0  0  0  0
   -7.7320   -1.6890  -24.1590 C   0  0  0  0  0  0  0  0  0  0  0  0
   -7.9220   -2.7110  -25.2570 C   0  0  0  0  0  0  0  0  0  0  0  0
   -7.5530   -2.1620  -26.5970 C   0  0  0  0  0  0  0  0  0  0  0  0
   -8.0090   -1.1340  -21.7330 C   0  0  0  0  0  0  0  0  0  0  0  0
   -8.5080   -0.0550  -21.4350 O   0  0  0  0  0  0  0  0  0  0  0  0
   -6.9170   -1.6370  -21.1150 N   0  0  0  0  0  0  0  0  0  0  0  0
   -6.2220   -0.9780  -20.0730 C   0  0  0  0  0  0  0  0  0  0  0  0
   -5.0790   -0.2130  -20.3640 C   0  0  0  0  0  0  0  0  0  0  0  0
   -4.5800   -0.0260  -21.7750 C   0  0  0  0  0  0  0  0  0  0  0  0
   -4.4620    0.4410  -19.3040 C   0  0  0  0  0  0  0  0  0  0  0  0
   -4.9960    0.3410  -18.0360 C   0  0  0  0  0  0  0  0  0  0  0  0
   -6.0870   -0.3760  -17.7490 N   0  0  0  0  0  0  0  0  0  0  0  0
   -6.6810   -1.0210  -18.7570 C   0  0  0  0  0  0  0  0  0  0  0  0
  2  1  1  0
  3  2  2  0
  4  3  1  0
  5  4  2  0
  6  2  1  0
  7  6  2  0
  7  5  1  0
  8  7  1  0
  8  9  1  6
 10  9  1  0
 11 10  1  0
 12  8  1  0
 13 12  2  0
 14 12  1  0
 15 14  1  0
 16 15  2  0
 17 16  1  0
 18 16  1  0
 19 18  2  0
 20 19  1  0
 21 20  2  0
 21 15  1  0
M  END
$$$$

     RDKit          3D

 33 37  0  0  0  0  0  0  0  0999 V2000
  -13.8740   -2.7510  -21.5360 Cl  0  0  0  0  0  0  0  0  0  0  0  0
  -12.6720   -2.0030  -22.5480 C   0  0  0  0  0  0  0  0  0  0  0  0
  -11.3430   -2.3540  -22.3860 C   0  0  0  0  0  0  0  0  0  0  0  0
  -13.0620   -1.0550  -23.4630 C   0  0  0  0  0  0  0  0  0  0  0  0
  -12.1000   -0.4540  -24.2520 C   0  0  0  0  0  0  0  0  0  0  0  0
  -10.7480   -0.7660  -24.1100 C   0  0  0  0  0  0  0  0  0  0  0  0
   -9.7690   -0.0520  -25.0190 C   0  0  0  0  0  0  0  0  0  0  0  0
   -8.3660   -0.4120  -24.7740 N   0  0  0  0  0  0  0  0  0  0  0  0
   -7.1130    0.4780  -25.2110 S   0  0  2  0  0  0  0  0  0  0  0  0
   -7.1110    0.5590  -26.6300 O   0  0  0  0  0  0  0  0  0  0  0  0
   -5.9730    0.0000  -24.5060 O   0  0  0  0  0  0  0  0  0  0  0  0
   -7.5690    1.9070  -24.6530 N   0  0  0  0  0  0  0  0  0  0  0  0
   -7.6760    3.0940  -25.5270 C   0  0  0  0  0  0  0  0  0  0  0  0
   -7.0960    4.2390  -24.6980 C   0  0  0  0  0  0  0  0  0  0  0  0
   -7.2830    2.3490  -23.2710 C   0  0  0  0  0  0  0  0  0  0  0  0
   -6.3780    3.5470  -23.5150 C   0  0  2  0  0  0  0  0  0  0  0  0
   -6.2040    4.4370  -22.2890 C   0  0  0  0  0  0  0  0  0  0  0  0
  -10.3650   -1.7140  -23.1500 C   0  0  0  0  0  0  0  0  0  0  0  0
   -8.8930   -1.9940  -22.9170 C   0  0  1  0  0  0  0  0  0  0  0  0
   -8.1050   -1.7460  -24.2010 C   0  0  0  0  0  0  0  0  0  0  0  0
   -8.3610   -1.1350  -21.7660 C   0  0  0  0  0  0  0  0  0  0  0  0
   -8.9130   -0.0910  -21.4200 O   0  0  0  0  0  0  0  0  0  0  0  0
   -7.2380   -1.6150  -21.1710 N   0  0  0  0  0  0  0  0  0  0  0  0
   -6.5210   -1.0400  -20.0980 C   0  0  0  0  0  0  0  0  0  0  0  0
   -5.4180   -0.1760  -20.3930 C   0  0  0  0  0  0  0  0  0  0  0  0
   -4.9140    0.0460  -21.7010 C   0  0  0  0  0  0  0  0  0  0  0  0
   -3.8410    0.8650  -21.9150 C   0  0  0  0  0  0  0  0  0  0  0  0
   -3.2250    1.5160  -20.8510 C   0  0  0  0  0  0  0  0  0  0  0  0
   -3.6730    1.3410  -19.5740 C   0  0  0  0  0  0  0  0  0  0  0  0
   -4.7690    0.4820  -19.3060 C   0  0  0  0  0  0  0  0  0  0  0  0
   -5.2430    0.2150  -17.9970 C   0  0  0  0  0  0  0  0  0  0  0  0
   -6.2560   -0.5960  -17.7220 N   0  0  0  0  0  0  0  0  0  0  0  0
   -6.8690   -1.1930  -18.7540 C   0  0  0  0  0  0  0  0  0  0  0  0
  2  1  1  0
  3  2  2  0
  4  2  1  0
  5  4  2  0
  6  5  1  0
  7  6  1  0
  8  7  1  0
  9  8  1  6
 10  9  2  0
 11  9  2  0
 12  9  1  0
 13 12  1  0
 14 13  1  0
 15 12  1  0
 16 15  1  0
 16 14  1  0
 16 17  1  1
 18  3  1  0
 18  6  2  0
 19 18  1  0
 20 19  1  0
 20  8  1  0
 19 21  1  1
 22 21  2  0
 23 21  1  0
 24 23  1  0
 25 24  1  0
 26 25  2  0
 27 26  1  0
 28 27  2  0
 29 28  1  0
 30 29  2  0
 30 25  1  0
 31 30  1  0
 32 31  2  0
 33 32  1  0
 33 24  2  0
M  END
$$$$

     RDKit          3D

 16 17  0  0  0  0  0  0  0  0999 V2000
   -6.3090   -4.7710  -22.0220 N   0  0  0  0  0  0  0  0  0  0  0  0
   -7.9450   -4.4220  -20.3490 C   0  0  0  0  0  0  0  0  0  0  0  0
   -5.7100   -5.1110  -19.8470 O   0  0  0  0  0  0  0  0  0  0  0  0
   -6.5300   -4.8090  -20.6960 C   0  0  0  0  0  0  0  0  0  0  0  0
   -2.8840   -3.0860  -27.4520 C   0  0  0  0  0  0  0  0  0  0  0  0
   -3.8300   -3.5480  -26.3770 C   0  0  0  0  0  0  0  0  0  0  0  0
   -5.3220   -5.4300  -22.7870 C   0  0  0  0  0  0  0  0  0  0  0  0
   -4.9430   -6.7530  -22.5670 C   0  0  0  0  0  0  0  0  0  0  0  0
   -3.9780   -7.3230  -23.3790 C   0  0  0  0  0  0  0  0  0  0  0  0
   -3.3930   -6.6020  -24.4040 C   0  0  0  0  0  0  0  0  0  0  0  0
   -3.7840   -5.2870  -24.6180 C   0  0  0  0  0  0  0  0  0  0  0  0
   -4.7480   -4.6950  -23.8130 C   0  0  0  0  0  0  0  0  0  0  0  0
   -1.7910   -4.7000  -26.0610 C   0  0  0  0  0  0  0  0  0  0  0  0
   -1.5140   -3.5070  -26.9510 C   0  0  0  0  0  0  0  0  0  0  0  0
   -3.1920   -4.5230  -25.6600 N   0  0  0  0  0  0  0  0  0  0  0  0
   -4.9510   -3.1310  -26.1560 O   0  0  0  0  0  0  0  0  0  0  0  0
  4  1  1  0
  4  3  2  0
  4  2  1  0
  6  5  1  0
  7  1  1  0
  8  7  2  0
  9  8  1  0
 10  9  2  0
 11 10  1  0
 12 11  2  0
 12  7  1  0
 14  5  1  0
 14 13  1  0
 15 13  1  0
 15 11  1  0
 15  6  1  0
 16  6  2  0
M  END
$$$$

     RDKit          3D

 24 26  0  0  0  0  0  0  0  0999 V2000
   -6.4420   -8.5520  -30.3720 O   0  0  0  0  0  0  0  0  0  0  0  0
   -6.1560   -7.9260  -29.3600 C   0  0  0  0  0  0  0  0  0  0  0  0
   -7.0630   -7.7520  -28.3810 N   0  0  0  0  0  0  0  0  0  0  0  0
   -6.8930   -7.0450  -27.2080 N   0  0  0  0  0  0  0  0  0  0  0  0
   -4.8520   -7.2970  -29.1340 C   0  0  0  0  0  0  0  0  0  0  0  0
   -4.6260   -6.5790  -27.9470 C   0  0  0  0  0  0  0  0  0  0  0  0
   -3.3680   -6.0150  -27.7170 C   0  0  0  0  0  0  0  0  0  0  0  0
   -2.3590   -6.1670  -28.6550 C   0  0  0  0  0  0  0  0  0  0  0  0
   -2.5880   -6.8660  -29.8250 C   0  0  0  0  0  0  0  0  0  0  0  0
   -3.8300   -7.4290  -30.0730 C   0  0  0  0  0  0  0  0  0  0  0  0
   -5.7300   -6.4680  -26.9790 C   0  0  0  0  0  0  0  0  0  0  0  0
   -5.7290   -5.6990  -25.6710 C   0  0  0  0  0  0  0  0  0  0  0  0
   -4.8510   -4.8730  -25.4150 O   0  0  0  0  0  0  0  0  0  0  0  0
   -6.7420   -5.9850  -24.8280 N   0  0  0  0  0  0  0  0  0  0  0  0
   -6.8140   -5.3020  -23.6260 N   0  0  0  0  0  0  0  0  0  0  0  0
   -7.4300   -4.1050  -23.4230 C   0  0  0  0  0  0  0  0  0  0  0  0
   -8.1330   -3.3420  -24.4950 C   0  0  0  0  0  0  0  0  0  0  0  0
   -6.2530   -5.7930  -22.4760 C   0  0  0  0  0  0  0  0  0  0  0  0
   -5.4930   -7.0730  -22.4080 C   0  0  0  0  0  0  0  0  0  0  0  0
   -6.5300   -4.8550  -21.4880 C   0  0  0  0  0  0  0  0  0  0  0  0
   -7.2670   -3.8000  -22.0950 C   0  0  0  0  0  0  0  0  0  0  0  0
   -6.1600   -4.9110  -20.0650 C   0  0  0  0  0  0  0  0  0  0  0  0
   -5.3900   -5.7770  -19.6710 O   0  0  0  0  0  0  0  0  0  0  0  0
   -6.7700   -3.8980  -19.1230 C   0  0  0  0  0  0  0  0  0  0  0  0
  2  1  2  0
  3  2  1  0
  4  3  1  0
  5  2  1  0
  6  5  2  0
  7  6  1  0
  8  7  2  0
  9  8  1  0
 10  9  2  0
 10  5  1  0
 11  4  2  0
 11  6  1  0
 12 11  1  0
 13 12  2  0
 14 12  1  0
 15 14  1  0
 16 15  1  0
 17 16  1  0
 18 15  1  0
 19 18  1  0
 20 18  2  0
 21 16  2  0
 21 20  1  0
 22 20  1  0
 23 22  2  0
 24 22  1  0
M  END
$$$$

     RDKit          3D

 25 28  0  0  0  0  0  0  0  0999 V2000
  -13.9260   -2.8420  -21.4240 Cl  0  0  0  0  0  0  0  0  0  0  0  0
  -12.8740   -1.9360  -22.4770 C   0  0  0  0  0  0  0  0  0  0  0  0
  -13.4140   -0.9820  -23.3120 C   0  0  0  0  0  0  0  0  0  0  0  0
  -12.5710   -0.1940  -24.0750 C   0  0  0  0  0  0  0  0  0  0  0  0
  -11.5120   -2.1440  -22.3970 C   0  0  0  0  0  0  0  0  0  0  0  0
  -10.6460   -1.3520  -23.1500 C   0  0  0  0  0  0  0  0  0  0  0  0
  -11.2010   -0.3830  -23.9950 C   0  0  0  0  0  0  0  0  0  0  0  0
  -10.4490    0.4000  -24.8410 O   0  0  0  0  0  0  0  0  0  0  0  0
   -9.0200    0.3950  -24.6330 C   0  0  0  0  0  0  0  0  0  0  0  0
   -8.4940   -0.9860  -24.3380 C   0  0  0  0  0  0  0  0  0  0  0  0
   -9.1410   -1.5210  -23.0520 C   0  0  1  0  0  0  0  0  0  0  0  0
   -8.6400   -0.7760  -21.8110 C   0  0  0  0  0  0  0  0  0  0  0  0
   -9.3620   -0.0240  -21.1660 O   0  0  0  0  0  0  0  0  0  0  0  0
   -7.3210   -0.9360  -21.5500 N   0  0  0  0  0  0  0  0  0  0  0  0
   -6.6080   -0.7630  -20.3480 C   0  0  0  0  0  0  0  0  0  0  0  0
   -7.1400   -0.9020  -19.0650 C   0  0  0  0  0  0  0  0  0  0  0  0
   -6.5740   -0.4620  -17.9360 N   0  0  0  0  0  0  0  0  0  0  0  0
   -5.4240    0.1820  -18.0410 C   0  0  0  0  0  0  0  0  0  0  0  0
   -5.3460   -0.0990  -20.4550 C   0  0  0  0  0  0  0  0  0  0  0  0
   -4.7020    0.1440  -21.6950 C   0  0  0  0  0  0  0  0  0  0  0  0
   -3.5650    0.8840  -21.7100 C   0  0  0  0  0  0  0  0  0  0  0  0
   -2.9120    1.0410  -22.8930 F   0  0  0  0  0  0  0  0  0  0  0  0
   -4.7590    0.4190  -19.2660 C   0  0  0  0  0  0  0  0  0  0  0  0
   -3.5830    1.1980  -19.3680 C   0  0  0  0  0  0  0  0  0  0  0  0
   -3.0040    1.4320  -20.5810 C   0  0  0  0  0  0  0  0  0  0  0  0
  2  1  1  0
  3  2  2  0
  4  3  1  0
  5  2  1  0
  6  5  2  0
  7  4  2  0
  7  6  1  0
  8  7  1  0
  9  8  1  0
 10  9  1  0
 11 10  1  0
 11  6  1  0
 11 12  1  1
 13 12  2  0
 14 12  1  0
 15 14  1  0
 16 15  2  0
 17 16  1  0
 18 17  2  0
 19 15  1  0
 20 19  2  0
 21 20  1  0
 22 21  1  0
 23 19  1  0
 23 18  1  0
 24 23  2  0
 25 24  1  0
 25 21  2  0
M  END
$$$$

     RDKit          3D

 31 34  0  0  0  0  0  0  0  0999 V2000
   -8.8800    0.3990  -21.3180 O   0  0  0  0  0  0  0  0  0  0  0  0
   -8.6460   -0.6830  -21.8480 C   0  0  0  0  0  0  0  0  0  0  0  0
   -7.7140   -1.6790  -21.1840 C   0  0  0  0  0  0  0  0  0  0  0  0
   -6.8740   -1.0480  -20.0930 C   0  0  0  0  0  0  0  0  0  0  0  0
   -5.7890   -0.1850  -20.4160 C   0  0  0  0  0  0  0  0  0  0  0  0
   -5.3950    0.1120  -21.7480 C   0  0  0  0  0  0  0  0  0  0  0  0
   -4.3550    0.9640  -22.0010 C   0  0  0  0  0  0  0  0  0  0  0  0
   -3.6590    1.5590  -20.9580 C   0  0  0  0  0  0  0  0  0  0  0  0
   -4.0030    1.3100  -19.6610 C   0  0  0  0  0  0  0  0  0  0  0  0
   -5.0680    0.4300  -19.3550 C   0  0  0  0  0  0  0  0  0  0  0  0
   -5.4780    0.1340  -18.0290 C   0  0  0  0  0  0  0  0  0  0  0  0
   -6.4860   -0.6820  -17.7310 N   0  0  0  0  0  0  0  0  0  0  0  0
   -7.1520   -1.2450  -18.7530 C   0  0  0  0  0  0  0  0  0  0  0  0
   -9.1640   -1.0160  -23.0650 N   0  0  0  0  0  0  0  0  0  0  0  0
   -8.9420   -2.2550  -23.6860 C   0  0  0  0  0  0  0  0  0  0  0  0
   -8.1090   -2.3690  -24.7910 C   0  0  0  0  0  0  0  0  0  0  0  0
   -8.0330   -3.6050  -25.4020 C   0  0  0  0  0  0  0  0  0  0  0  0
   -9.6460   -3.2740  -23.1720 N   0  0  0  0  0  0  0  0  0  0  0  0
   -9.5510   -4.4720  -23.7720 C   0  0  0  0  0  0  0  0  0  0  0  0
   -8.7560   -4.6880  -24.8960 C   0  0  0  0  0  0  0  0  0  0  0  0
   -8.6800   -5.9490  -25.4860 N   0  0  0  0  0  0  0  0  0  0  0  0
   -8.2540   -6.1000  -26.8670 C   0  0  0  0  0  0  0  0  0  0  0  0
   -9.4270   -7.0780  -24.9510 C   0  0  0  0  0  0  0  0  0  0  0  0
   -9.9760   -0.0180  -23.7760 C   0  0  0  0  0  0  0  0  0  0  0  0
  -11.4240   -0.0020  -23.3470 C   0  0  0  0  0  0  0  0  0  0  0  0
  -12.0010   -1.1310  -22.7720 C   0  0  0  0  0  0  0  0  0  0  0  0
  -13.2890   -1.0620  -22.2750 C   0  0  0  0  0  0  0  0  0  0  0  0
  -13.9070   -2.4020  -21.3420 Cl  0  0  0  0  0  0  0  0  0  0  0  0
  -14.0700    0.0600  -22.4410 C   0  0  0  0  0  0  0  0  0  0  0  0
  -13.5030    1.1810  -23.0270 C   0  0  0  0  0  0  0  0  0  0  0  0
  -12.1840    1.1550  -23.4560 C   0  0  0  0  0  0  0  0  0  0  0  0
  2  1  2  0
  3  2  1  0
  4  3  1  0
  5  4  1  0
  6  5  2  0
  7  6  1  0
  8  7  2  0
  9  8  1  0
 10  5  1  0
 10  9  2  0
 11 10  1  0
 12 11  2  0
 13 12  1  0
 13  4  2  0
 14  2  1  0
 15 14  1  0
 16 15  2  0
 17 16  1  0
 18 15  1  0
 19 18  2  0
 20 19  1  0
 20 17  2  0
 21 20  1  0
 22 21  1  0
 23 21  1  0
 24 14  1  0
 25 24  1  0
 26 25  2  0
 27 26  1  0
 28 27  1  0
 29 27  2  0
 30 29  1  0
 31 30  2  0
 31 25  1  0
M  END
$$$$

     RDKit          3D

 30 33  0  0  0  0  0  0  0  0999 V2000
  -13.8410   -2.7610  -21.5310 Cl  0  0  0  0  0  0  0  0  0  0  0  0
  -12.6900   -1.9550  -22.5570 C   0  0  0  0  0  0  0  0  0  0  0  0
  -11.3540   -2.2800  -22.4480 C   0  0  0  0  0  0  0  0  0  0  0  0
  -13.1290   -0.9910  -23.4370 C   0  0  0  0  0  0  0  0  0  0  0  0
  -12.2060   -0.3410  -24.2370 C   0  0  0  0  0  0  0  0  0  0  0  0
  -10.8430   -0.6270  -24.1390 C   0  0  0  0  0  0  0  0  0  0  0  0
   -9.8590    0.0960  -25.0330 C   0  0  0  0  0  0  0  0  0  0  0  0
   -8.4750   -0.0150  -24.5490 N   0  0  2  0  0  0  0  0  0  0  0  0
   -7.4810    0.6790  -25.3940 C   0  0  1  0  0  0  0  0  0  0  0  0
   -7.7120    0.8920  -26.8840 C   0  0  0  0  0  0  0  0  0  0  0  0
   -6.8450    1.9070  -24.7270 C   0  0  0  0  0  0  0  0  0  0  0  0
   -5.9840    2.5640  -25.3100 O   0  0  0  0  0  0  0  0  0  0  0  0
   -7.2780    2.2020  -23.5040 N   0  0  0  0  0  0  0  0  0  0  0  0
   -6.7530    3.3270  -22.7520 C   0  0  0  0  0  0  0  0  0  0  0  0
  -10.4140   -1.5980  -23.2190 C   0  0  0  0  0  0  0  0  0  0  0  0
   -8.9330   -1.8590  -23.0200 C   0  0  1  0  0  0  0  0  0  0  0  0
   -8.1550   -1.4180  -24.2600 C   0  0  0  0  0  0  0  0  0  0  0  0
   -8.4560   -1.0730  -21.7960 C   0  0  0  0  0  0  0  0  0  0  0  0
   -9.0230   -0.0480  -21.4150 O   0  0  0  0  0  0  0  0  0  0  0  0
   -7.3140   -1.5360  -21.2390 N   0  0  0  0  0  0  0  0  0  0  0  0
   -6.5910   -0.9750  -20.1640 C   0  0  0  0  0  0  0  0  0  0  0  0
   -5.4300   -0.1850  -20.4500 C   0  0  0  0  0  0  0  0  0  0  0  0
   -4.9160    0.0160  -21.7590 C   0  0  0  0  0  0  0  0  0  0  0  0
   -3.8350    0.8260  -21.9710 C   0  0  0  0  0  0  0  0  0  0  0  0
   -3.2120    1.4700  -20.9100 C   0  0  0  0  0  0  0  0  0  0  0  0
   -3.6670    1.3030  -19.6320 C   0  0  0  0  0  0  0  0  0  0  0  0
   -4.7840    0.4710  -19.3660 C   0  0  0  0  0  0  0  0  0  0  0  0
   -5.3160    0.2820  -18.0650 C   0  0  0  0  0  0  0  0  0  0  0  0
   -6.3860   -0.4560  -17.7980 N   0  0  0  0  0  0  0  0  0  0  0  0
   -6.9940   -1.0610  -18.8290 C   0  0  0  0  0  0  0  0  0  0  0  0
  2  1  1  0
  3  2  2  0
  4  2  1  0
  5  4  2  0
  6  5  1  0
  7  6  1  0
  8  7  1  6
  9  8  1  0
  9 10  1  6
 11  9  1  0
 12 11  2  0
 13 11  1  0
 14 13  1  0
 15  3  1  0
 15  6  2  0
 16 15  1  0
 17 16  1  0
 17  8  1  0
 16 18  1  1
 19 18  2  0
 20 18  1  0
 21 20  1  0
 22 21  1  0
 23 22  2  0
 24 23  1  0
 25 24  2  0
 26 25  1  0
 27 26  2  0
 27 22  1  0
 28 27  1  0
 29 28  2  0
 30 29  1  0
 30 21  2  0
M  CHG  1   8   1
M  END
$$$$

     RDKit          3D

 19 21  0  0  0  0  0  0  0  0999 V2000
   -8.9090    0.1050  -21.4110 O   0  0  0  0  0  0  0  0  0  0  0  0
   -8.8620   -1.0440  -21.8050 C   0  0  0  0  0  0  0  0  0  0  0  0
   -9.5770   -1.4680  -22.8660 N   0  0  0  0  0  0  0  0  0  0  0  0
   -9.6150   -2.8550  -23.3540 C   0  0  0  0  0  0  0  0  0  0  0  0
  -11.0490   -3.3780  -23.3810 C   0  0  0  0  0  0  0  0  0  0  0  0
  -10.4350   -0.5510  -23.6300 C   0  0  0  0  0  0  0  0  0  0  0  0
  -11.8800   -1.0510  -23.6600 C   0  0  0  0  0  0  0  0  0  0  0  0
  -11.9720   -2.4760  -24.1870 C   0  0  2  0  0  0  0  0  0  0  0  0
  -13.4050   -2.9910  -24.1980 C   0  0  0  0  0  0  0  0  0  0  0  0
   -7.9770   -2.0700  -21.1000 C   0  0  0  0  0  0  0  0  0  0  0  0
   -7.1360   -1.4290  -20.1210 N   0  0  0  0  0  0  0  0  0  0  0  0
   -6.0340   -0.6500  -20.2990 C   0  0  0  0  0  0  0  0  0  0  0  0
   -5.6770   -0.2510  -19.0170 C   0  0  0  0  0  0  0  0  0  0  0  0
   -6.5640   -0.8100  -18.1250 N   0  0  0  0  0  0  0  0  0  0  0  0
   -7.4280   -1.5130  -18.7950 N   0  0  0  0  0  0  0  0  0  0  0  0
   -5.3010   -0.2650  -21.4220 C   0  0  0  0  0  0  0  0  0  0  0  0
   -4.1730    0.5250  -21.2100 C   0  0  0  0  0  0  0  0  0  0  0  0
   -3.8170    0.9420  -19.9290 C   0  0  0  0  0  0  0  0  0  0  0  0
   -4.5670    0.5640  -18.8200 C   0  0  0  0  0  0  0  0  0  0  0  0
  2  1  2  0
  3  2  1  0
  4  3  1  0
  5  4  1  0
  6  3  1  0
  7  6  1  0
  8  7  1  0
  8  5  1  0
  8  9  1  1
 10  2  1  0
 11 10  1  0
 12 11  1  0
 13 12  2  0
 14 13  1  0
 15 14  2  0
 15 11  1  0
 16 12  1  0
 17 16  2  0
 18 17  1  0
 19 13  1  0
 19 18  2  0
M  END
$$$$

     RDKit          3D

 14 14  0  0  0  0  0  0  0  0999 V2000
   -7.7500   -1.9030  -20.5640 O   0  0  0  0  0  0  0  0  0  0  0  0
   -8.0160   -3.0990  -20.5950 C   0  0  0  0  0  0  0  0  0  0  0  0
   -7.8030   -3.9920  -19.4000 C   0  0  0  0  0  0  0  0  0  0  0  0
   -8.5170   -3.6870  -21.6920 N   0  0  0  0  0  0  0  0  0  0  0  0
   -8.7030   -2.9490  -22.9450 C   0  0  1  0  0  0  0  0  0  0  0  0
   -8.2700   -3.8300  -24.1110 C   0  0  0  0  0  0  0  0  0  0  0  0
  -10.1330   -2.4680  -23.1130 C   0  0  0  0  0  0  0  0  0  0  0  0
  -10.4340   -1.4360  -23.9980 C   0  0  0  0  0  0  0  0  0  0  0  0
  -11.7210   -0.9680  -24.0560 C   0  0  0  0  0  0  0  0  0  0  0  0
  -12.0190   -0.0180  -24.9800 F   0  0  0  0  0  0  0  0  0  0  0  0
  -12.7340   -1.4490  -23.2670 C   0  0  0  0  0  0  0  0  0  0  0  0
  -12.4250   -2.4830  -22.4090 C   0  0  0  0  0  0  0  0  0  0  0  0
  -13.6650   -3.1270  -21.3720 Cl  0  0  0  0  0  0  0  0  0  0  0  0
  -11.1510   -3.0090  -22.3350 C   0  0  0  0  0  0  0  0  0  0  0  0
  2  1  2  0
  3  2  1  0
  4  2  1  0
  5  4  1  0
  5  6  1  6
  7  5  1  0
  8  7  2  0
  9  8  1  0
 10  9  1  0
 11  9  2  0
 12 11  1  0
 13 12  1  0
 14 12  2  0
 14  7  1  0
M  END
$$$$

     RDKit          3D

 20 21  0  0  0  0  0  0  0  0999 V2000
   -5.2700   -6.4790  -24.4400 N   0  0  0  0  0  0  0  0  0  0  0  0
   -0.2480   -2.3860  -26.2180 C   0  0  0  0  0  0  0  0  0  0  0  0
   -3.9820   -7.9350  -25.9520 O   0  0  0  0  0  0  0  0  0  0  0  0
   -1.2970   -3.4450  -26.1340 C   0  0  0  0  0  0  0  0  0  0  0  0
   -5.3480   -7.0160  -22.0760 C   0  0  0  0  0  0  0  0  0  0  0  0
   -4.4410   -6.7630  -23.2560 C   0  0  0  0  0  0  0  0  0  0  0  0
   -6.3820   -5.2130  -20.7090 C   0  0  0  0  0  0  0  0  0  0  0  0
   -7.7010   -4.5240  -20.4690 C   0  0  0  0  0  0  0  0  0  0  0  0
   -2.6070   -3.1750  -26.4600 C   0  0  0  0  0  0  0  0  0  0  0  0
   -3.5770   -4.1480  -26.3880 C   0  0  0  0  0  0  0  0  0  0  0  0
   -3.2480   -5.4340  -25.9770 C   0  0  0  0  0  0  0  0  0  0  0  0
   -1.9190   -5.7500  -25.6350 C   0  0  0  0  0  0  0  0  0  0  0  0
   -1.4240   -7.0930  -25.1740 C   0  0  0  0  0  0  0  0  0  0  0  0
   -0.9790   -4.7290  -25.7280 C   0  0  0  0  0  0  0  0  0  0  0  0
   -6.1260   -5.3020  -24.2320 C   0  0  0  0  0  0  0  0  0  0  0  0
   -7.0400   -5.5780  -23.0710 C   0  0  0  0  0  0  0  0  0  0  0  0
   -6.2550   -5.8850  -21.8750 N   0  0  0  0  0  0  0  0  0  0  0  0
   -5.5360   -6.2500  -26.8730 O   0  0  0  0  0  0  0  0  0  0  0  0
   -5.5120   -5.1990  -19.8460 O   0  0  0  0  0  0  0  0  0  0  0  0
   -4.5530   -6.6260  -25.9060 S   0  0  2  0  0  0  0  0  0  0  0  0
  4  2  1  0
  6  5  1  0
  6  1  1  0
  8  7  1  0
  9  4  2  0
 10  9  1  0
 11 10  2  0
 12 11  1  0
 13 12  1  0
 14 12  2  0
 14  4  1  0
 15  1  1  0
 16 15  1  0
 17 16  1  0
 17  7  1  0
 17  5  1  0
 19  7  2  0
 20 18  2  0
 20  3  2  0
 20  1  1  1
 20 11  1  0
M  END
$$$$

     RDKit          3D

 23 25  0  0  0  0  0  0  0  0999 V2000
   -8.6550   -0.2140  -21.0640 O   0  0  0  0  0  0  0  0  0  0  0  0
   -8.1560   -1.3190  -21.2830 C   0  0  0  0  0  0  0  0  0  0  0  0
   -8.8150   -2.3390  -22.1910 C   0  0  0  0  0  0  0  0  0  0  0  0
  -10.0370   -1.8150  -22.9100 C   0  0  0  0  0  0  0  0  0  0  0  0
  -11.2960   -2.3260  -22.6190 C   0  0  0  0  0  0  0  0  0  0  0  0
  -12.4000   -1.8090  -23.2630 C   0  0  0  0  0  0  0  0  0  0  0  0
  -13.9580   -2.5370  -22.9840 Cl  0  0  0  0  0  0  0  0  0  0  0  0
  -12.2910   -0.7870  -24.1870 C   0  0  0  0  0  0  0  0  0  0  0  0
   -9.9180   -0.8100  -23.8650 C   0  0  0  0  0  0  0  0  0  0  0  0
  -11.0330   -0.2990  -24.5240 C   0  0  0  0  0  0  0  0  0  0  0  0
  -10.8620    0.6470  -25.6990 C   0  0  0  0  0  0  0  0  0  0  0  0
  -10.7560    2.1190  -25.3740 C   0  0  0  0  0  0  0  0  0  0  0  0
   -6.9940   -1.7330  -20.7360 N   0  0  0  0  0  0  0  0  0  0  0  0
   -6.2160   -1.0610  -19.7770 C   0  0  0  0  0  0  0  0  0  0  0  0
   -5.1890   -0.1760  -20.2290 C   0  0  0  0  0  0  0  0  0  0  0  0
   -4.7620   -0.0820  -21.5780 C   0  0  0  0  0  0  0  0  0  0  0  0
   -3.7750    0.7910  -21.9440 C   0  0  0  0  0  0  0  0  0  0  0  0
   -3.1690    1.6080  -21.0010 C   0  0  0  0  0  0  0  0  0  0  0  0
   -3.5430    1.5530  -19.6890 C   0  0  0  0  0  0  0  0  0  0  0  0
   -4.5610    0.6600  -19.2660 C   0  0  0  0  0  0  0  0  0  0  0  0
   -4.9810    0.5430  -17.9200 C   0  0  0  0  0  0  0  0  0  0  0  0
   -5.9150   -0.2980  -17.4990 N   0  0  0  0  0  0  0  0  0  0  0  0
   -6.5020   -1.0780  -18.4130 C   0  0  0  0  0  0  0  0  0  0  0  0
  2  1  2  0
  3  2  1  0
  4  3  1  0
  5  4  2  0
  6  5  1  0
  7  6  1  0
  8  6  2  0
  9  4  1  0
 10  8  1  0
 10  9  2  0
 11 10  1  0
 12 11  1  0
 13  2  1  0
 14 13  1  0
 15 14  1  0
 16 15  2  0
 17 16  1  0
 18 17  2  0
 19 18  1  0
 20 19  2  0
 20 15  1  0
 21 20  1  0
 22 21  2  0
 23 22  1  0
 23 14  2  0
M  END
$$$$

     RDKit          3D

 27 29  0  0  0  0  0  0  0  0999 V2000
   -8.8500   -0.2670  -21.5560 O   0  0  0  0  0  0  0  0  0  0  0  0
   -8.2960   -1.3410  -21.7770 C   0  0  0  0  0  0  0  0  0  0  0  0
   -7.1680   -1.7420  -21.1480 N   0  0  0  0  0  0  0  0  0  0  0  0
   -6.4910   -1.1100  -20.0820 C   0  0  0  0  0  0  0  0  0  0  0  0
   -5.3950   -0.2400  -20.3830 C   0  0  0  0  0  0  0  0  0  0  0  0
   -4.9010   -0.0170  -21.6930 C   0  0  0  0  0  0  0  0  0  0  0  0
   -3.8600    0.8400  -21.9160 C   0  0  0  0  0  0  0  0  0  0  0  0
   -3.2640    1.5160  -20.8590 C   0  0  0  0  0  0  0  0  0  0  0  0
   -3.6980    1.3310  -19.5790 C   0  0  0  0  0  0  0  0  0  0  0  0
   -4.7690    0.4470  -19.3020 C   0  0  0  0  0  0  0  0  0  0  0  0
   -5.2590    0.2040  -17.9960 C   0  0  0  0  0  0  0  0  0  0  0  0
   -6.2700   -0.6090  -17.7170 N   0  0  0  0  0  0  0  0  0  0  0  0
   -6.8590   -1.2400  -18.7420 C   0  0  0  0  0  0  0  0  0  0  0  0
   -8.8470   -2.3340  -22.7830 C   0  0  0  0  0  0  0  0  0  0  0  0
  -10.2530   -1.9360  -23.1850 C   0  0  0  0  0  0  0  0  0  0  0  0
  -11.3190   -2.3540  -22.3870 C   0  0  0  0  0  0  0  0  0  0  0  0
  -12.6040   -1.9410  -22.6800 C   0  0  0  0  0  0  0  0  0  0  0  0
  -13.9080   -2.4050  -21.6210 Cl  0  0  0  0  0  0  0  0  0  0  0  0
  -12.8730   -1.1420  -23.7650 C   0  0  0  0  0  0  0  0  0  0  0  0
  -11.8300   -0.7470  -24.5790 C   0  0  0  0  0  0  0  0  0  0  0  0
  -10.5160   -1.1300  -24.3100 C   0  0  0  0  0  0  0  0  0  0  0  0
   -9.3940   -0.6810  -25.2210 C   0  0  0  0  0  0  0  0  0  0  0  0
   -9.8540    0.1770  -26.3250 N   0  0  0  0  0  0  0  0  0  0  0  0
   -9.7100   -0.2020  -27.8950 S   0  0  1  0  0  0  0  0  0  0  0  0
  -11.0200   -0.1270  -28.4630 O   0  0  0  0  0  0  0  0  0  0  0  0
   -8.6810    0.6330  -28.4310 O   0  0  0  0  0  0  0  0  0  0  0  0
   -9.1680   -1.8650  -27.9940 C   0  0  0  0  0  0  0  0  0  0  0  0
  2  1  2  0
  3  2  1  0
  4  3  1  0
  5  4  1  0
  6  5  2  0
  7  6  1  0
  8  7  2  0
  9  8  1  0
 10  9  2  0
 10  5  1  0
 11 10  1  0
 12 11  2  0
 13 12  1  0
 13  4  2  0
 14  2  1  0
 15 14  1  0
 16 15  2  0
 17 16  1  0
 18 17  1  0
 19 17  2  0
 20 19  1  0
 21 20  2  0
 21 15  1  0
 22 21  1  0
 23 22  1  0
 24 23  1  0
 25 24  2  0
 26 24  2  0
 24 27  1  1
M  END
$$$$

     RDKit          3D

 31 35  0  0  0  0  0  0  0  0999 V2000
   -9.3910    0.3450  -21.5420 O   0  0  0  0  0  0  0  0  0  0  0  0
   -8.9080   -0.6830  -21.9790 C   0  0  0  0  0  0  0  0  0  0  0  0
   -7.8210   -1.3270  -21.4700 N   0  0  0  0  0  0  0  0  0  0  0  0
   -7.0080   -0.8550  -20.3870 C   0  0  0  0  0  0  0  0  0  0  0  0
   -5.8530   -0.0410  -20.5800 C   0  0  0  0  0  0  0  0  0  0  0  0
   -5.3330    0.3130  -21.8530 C   0  0  0  0  0  0  0  0  0  0  0  0
   -4.2180    1.0950  -21.9640 C   0  0  0  0  0  0  0  0  0  0  0  0
   -3.5770    1.5830  -20.8290 C   0  0  0  0  0  0  0  0  0  0  0  0
   -4.0340    1.2680  -19.5830 C   0  0  0  0  0  0  0  0  0  0  0  0
   -5.1750    0.4420  -19.4210 C   0  0  0  0  0  0  0  0  0  0  0  0
   -5.6820    0.0640  -18.1520 C   0  0  0  0  0  0  0  0  0  0  0  0
   -6.7510   -0.7020  -17.9770 N   0  0  0  0  0  0  0  0  0  0  0  0
   -7.3820   -1.1380  -19.0760 C   0  0  0  0  0  0  0  0  0  0  0  0
   -7.5800   -2.6270  -22.1170 C   0  0  0  0  0  0  0  0  0  0  0  0
   -8.8900   -2.9060  -22.8520 C   0  0  0  0  0  0  0  0  0  0  0  0
   -9.4260   -1.4900  -23.1750 C   0  0  1  0  0  0  0  0  0  0  0  0
  -10.9620   -1.4020  -23.2490 C   0  0  0  0  0  0  0  0  0  0  0  0
  -11.7640   -2.1870  -22.4180 C   0  0  0  0  0  0  0  0  0  0  0  0
  -13.1220   -1.9330  -22.3530 C   0  0  0  0  0  0  0  0  0  0  0  0
  -14.0860   -2.7860  -21.1780 Cl  0  0  0  0  0  0  0  0  0  0  0  0
  -13.7160   -0.9680  -23.1330 C   0  0  0  0  0  0  0  0  0  0  0  0
  -12.9330   -0.2330  -24.0030 C   0  0  0  0  0  0  0  0  0  0  0  0
  -11.5570   -0.4340  -24.0750 C   0  0  0  0  0  0  0  0  0  0  0  0
  -10.7430    0.3900  -25.0460 C   0  0  0  0  0  0  0  0  0  0  0  0
   -8.7800   -0.8610  -24.4390 C   0  0  0  0  0  0  0  0  0  0  0  0
   -9.3270    0.4780  -24.6580 N   0  0  1  0  0  0  0  0  0  0  0  0
   -8.5760    1.3570  -25.5490 C   0  0  0  0  0  0  0  0  0  0  0  0
   -7.6710    2.3540  -24.8470 C   0  0  0  0  0  0  0  0  0  0  0  0
   -6.6790    2.8020  -25.4190 O   0  0  0  0  0  0  0  0  0  0  0  0
   -7.9900    2.6960  -23.6020 N   0  0  0  0  0  0  0  0  0  0  0  0
   -7.1220    3.5160  -22.7760 C   0  0  0  0  0  0  0  0  0  0  0  0
  2  1  2  0
  3  2  1  0
  4  3  1  0
  5  4  1  0
  6  5  2  0
  7  6  1  0
  8  7  2  0
  9  8  1  0
 10  5  1  0
 10  9  2  0
 11 10  1  0
 12 11  2  0
 13 12  1  0
 13  4  2  0
 14  3  1  0
 15 14  1  0
 16 15  1  1
 16  2  1  0
 17 16  1  0
 18 17  2  0
 19 18  1  0
 20 19  1  0
 21 19  2  0
 22 21  1  0
 23 22  2  0
 23 17  1  0
 24 23  1  0
 25 16  1  0
 26 25  1  0
 26 24  1  0
 26 27  1  6
 28 27  1  0
 29 28  2  0
 30 28  1  0
 31 30  1  0
M  CHG  1  26   1
M  END
$$$$

     RDKit          3D

 36 41  0  0  0  0  0  0  0  0999 V2000
   -8.9760    6.0410  -22.8260 N   0  0  0  0  0  0  0  0  0  0  0  0
   -8.2630    5.1570  -22.9040 C   0  0  0  0  0  0  0  0  0  0  0  0
   -7.3550    4.0020  -22.9410 C   0  0  1  0  0  0  0  0  0  0  0  0
   -6.0070    4.2000  -23.6030 C   0  0  0  0  0  0  0  0  0  0  0  0
   -6.0890    4.1510  -22.1220 C   0  0  0  0  0  0  0  0  0  0  0  0
   -8.0750    2.6600  -23.0490 C   0  0  0  0  0  0  0  0  0  0  0  0
   -8.3190    1.8890  -24.6390 S   0  0  2  0  0  0  0  0  0  0  0  0
   -7.0660    1.3600  -25.0750 O   0  0  0  0  0  0  0  0  0  0  0  0
   -9.0180    2.8070  -25.4820 O   0  0  0  0  0  0  0  0  0  0  0  0
   -9.3110    0.6210  -24.3780 N   0  0  0  0  0  0  0  0  0  0  0  0
   -8.8030   -0.7520  -24.2400 C   0  0  0  0  0  0  0  0  0  0  0  0
  -10.7400    0.6770  -24.7150 C   0  0  0  0  0  0  0  0  0  0  0  0
  -11.5530   -0.2070  -23.7890 C   0  0  0  0  0  0  0  0  0  0  0  0
  -10.9600   -1.2180  -23.0080 C   0  0  0  0  0  0  0  0  0  0  0  0
  -11.7630   -2.0290  -22.2080 C   0  0  0  0  0  0  0  0  0  0  0  0
  -13.1210   -1.7980  -22.1500 C   0  0  0  0  0  0  0  0  0  0  0  0
  -14.0920   -2.7540  -21.0600 Cl  0  0  0  0  0  0  0  0  0  0  0  0
  -13.7200   -0.8100  -22.8980 C   0  0  0  0  0  0  0  0  0  0  0  0
  -12.9340   -0.0230  -23.7210 C   0  0  0  0  0  0  0  0  0  0  0  0
   -9.4530   -1.3800  -22.9830 C   0  0  1  0  0  0  0  0  0  0  0  0
   -8.9300   -2.8070  -22.6520 C   0  0  1  0  0  0  0  0  0  0  0  0
   -8.8800   -3.7860  -23.8210 C   0  0  0  0  0  0  0  0  0  0  0  0
   -8.8950   -0.6110  -21.7720 C   0  0  0  0  0  0  0  0  0  0  0  0
   -9.3500    0.4090  -21.2980 O   0  0  0  0  0  0  0  0  0  0  0  0
   -7.7820   -1.2660  -21.3320 N   0  0  0  0  0  0  0  0  0  0  0  0
   -7.5580   -2.5310  -22.0420 C   0  0  0  0  0  0  0  0  0  0  0  0
   -6.9160   -0.8260  -20.2740 C   0  0  0  0  0  0  0  0  0  0  0  0
   -5.7600   -0.0190  -20.5230 C   0  0  0  0  0  0  0  0  0  0  0  0
   -5.3210    0.3700  -21.8160 C   0  0  0  0  0  0  0  0  0  0  0  0
   -4.2190    1.1620  -21.9800 C   0  0  0  0  0  0  0  0  0  0  0  0
   -3.5050    1.6170  -20.8790 C   0  0  0  0  0  0  0  0  0  0  0  0
   -3.8850    1.2740  -19.6120 C   0  0  0  0  0  0  0  0  0  0  0  0
   -5.0170    0.4450  -19.3980 C   0  0  0  0  0  0  0  0  0  0  0  0
   -5.4640    0.0630  -18.1040 C   0  0  0  0  0  0  0  0  0  0  0  0
   -6.5360   -0.6890  -17.8780 N   0  0  0  0  0  0  0  0  0  0  0  0
   -7.2290   -1.1110  -18.9470 C   0  0  0  0  0  0  0  0  0  0  0  0
  2  1  3  0
  3  2  1  1
  4  3  1  0
  5  4  1  0
  5  3  1  0
  6  3  1  0
  7  6  1  1
  8  7  2  0
  9  7  2  0
 10  7  1  0
 11 10  1  0
 12 10  1  0
 13 12  1  0
 14 13  2  0
 15 14  1  0
 16 15  2  0
 17 16  1  0
 18 16  1  0
 19 18  2  0
 19 13  1  0
 20 14  1  0
 20 11  1  6
 21 20  1  0
 21 22  1  6
 23 20  1  0
 24 23  2  0
 25 23  1  0
 26 21  1  0
 26 25  1  0
 27 25  1  0
 28 27  1  0
 29 28  2  0
 30 29  1  0
 31 30  2  0
 32 31  1  0
 33 28  1  0
 33 32  2  0
 34 33  1  0
 35 34  2  0
 36 35  1  0
 36 27  2  0
M  END
$$$$

     RDKit          3D

 23 26  0  0  0  0  0  0  0  0999 V2000
   -9.1950    0.3700  -21.3860 O   0  0  0  0  0  0  0  0  0  0  0  0
   -8.7290   -0.6810  -21.8000 C   0  0  0  0  0  0  0  0  0  0  0  0
   -9.2060   -1.4840  -23.0050 C   0  0  2  0  0  0  0  0  0  0  0  0
  -10.7100   -1.3770  -23.1950 C   0  0  0  0  0  0  0  0  0  0  0  0
  -11.2500   -0.5120  -24.1400 C   0  0  0  0  0  0  0  0  0  0  0  0
  -12.6240   -0.3610  -24.2570 C   0  0  0  0  0  0  0  0  0  0  0  0
  -13.4780   -1.0650  -23.4220 C   0  0  0  0  0  0  0  0  0  0  0  0
  -11.5690   -2.1070  -22.3800 C   0  0  0  0  0  0  0  0  0  0  0  0
  -12.9330   -1.9200  -22.4850 C   0  0  0  0  0  0  0  0  0  0  0  0
  -13.9830   -2.7090  -21.3410 Cl  0  0  0  0  0  0  0  0  0  0  0  0
   -7.6730   -1.3570  -21.2490 N   0  0  0  0  0  0  0  0  0  0  0  0
   -7.4150   -2.6510  -21.9010 C   0  0  0  0  0  0  0  0  0  0  0  0
   -8.7060   -2.9050  -22.6670 C   0  0  0  0  0  0  0  0  0  0  0  0
   -6.8690   -0.8850  -20.1630 C   0  0  0  0  0  0  0  0  0  0  0  0
   -5.7340   -0.0590  -20.4020 C   0  0  0  0  0  0  0  0  0  0  0  0
   -5.2600    0.2880  -21.6950 C   0  0  0  0  0  0  0  0  0  0  0  0
   -4.1970    1.1330  -21.8530 C   0  0  0  0  0  0  0  0  0  0  0  0
   -3.5530    1.6750  -20.7480 C   0  0  0  0  0  0  0  0  0  0  0  0
   -3.9650    1.3670  -19.4830 C   0  0  0  0  0  0  0  0  0  0  0  0
   -5.0610    0.4920  -19.2730 C   0  0  0  0  0  0  0  0  0  0  0  0
   -5.5500    0.1550  -17.9840 C   0  0  0  0  0  0  0  0  0  0  0  0
   -6.5970   -0.6290  -17.7670 N   0  0  0  0  0  0  0  0  0  0  0  0
   -7.2310   -1.1290  -18.8410 C   0  0  0  0  0  0  0  0  0  0  0  0
  2  1  2  0
  3  2  1  0
  3  4  1  1
  5  4  2  0
  6  5  1  0
  7  6  2  0
  8  4  1  0
  9  8  2  0
  9  7  1  0
 10  9  1  0
 11  2  1  0
 12 11  1  0
 13 12  1  0
 13  3  1  0
 14 11  1  0
 15 14  1  0
 16 15  2  0
 17 16  1  0
 18 17  2  0
 19 18  1  0
 20 15  1  0
 20 19  2  0
 21 20  1  0
 22 21  2  0
 23 22  1  0
 23 14  2  0
M  END
$$$$

     RDKit          3D

 19 20  0  0  0  0  0  0  0  0999 V2000
   -6.5610   -3.6310  -26.1540 N   0  0  0  0  0  0  0  0  0  0  0  0
   -5.6470   -1.4440  -26.7860 C   0  0  0  0  0  0  0  0  0  0  0  0
   -5.0580   -1.3750  -25.5660 O   0  0  0  0  0  0  0  0  0  0  0  0
   -5.5310   -0.4360  -27.7450 C   0  0  0  0  0  0  0  0  0  0  0  0
   -7.4560   -4.3770  -22.0280 C   0  0  0  0  0  0  0  0  0  0  0  0
   -6.8020   -3.7830  -23.2440 C   0  0  0  0  0  0  0  0  0  0  0  0
   -6.1470   -5.0050  -20.0120 C   0  0  0  0  0  0  0  0  0  0  0  0
   -6.8930   -3.9430  -19.2470 C   0  0  0  0  0  0  0  0  0  0  0  0
   -6.1580   -0.5760  -28.9720 C   0  0  0  0  0  0  0  0  0  0  0  0
   -6.9020   -1.7010  -29.2540 C   0  0  0  0  0  0  0  0  0  0  0  0
   -7.0270   -2.7090  -28.3100 C   0  0  0  0  0  0  0  0  0  0  0  0
   -6.3900   -2.5900  -27.0910 C   0  0  0  0  0  0  0  0  0  0  0  0
   -5.6460   -4.2800  -25.3970 C   0  0  0  0  0  0  0  0  0  0  0  0
   -6.2340   -4.8870  -24.1380 C   0  0  1  0  0  0  0  0  0  0  0  0
   -5.2340   -5.7190  -23.3330 C   0  0  0  0  0  0  0  0  0  0  0  0
   -5.9030   -6.2840  -22.1030 C   0  0  0  0  0  0  0  0  0  0  0  0
   -6.4940   -5.2070  -21.2990 N   0  0  0  0  0  0  0  0  0  0  0  0
   -4.4600   -4.3820  -25.6880 O   0  0  0  0  0  0  0  0  0  0  0  0
   -5.2720   -5.6620  -19.4590 O   0  0  0  0  0  0  0  0  0  0  0  0
  3  2  1  0
  4  2  2  0
  6  5  1  0
  8  7  1  0
  9  4  1  0
 10  9  2  0
 11 10  1  0
 12 11  2  0
 12  2  1  0
 12  1  1  0
 13  1  1  0
 14 13  1  6
 14  6  1  0
 15 14  1  0
 16 15  1  0
 17 16  1  0
 17  5  1  0
 17  7  1  0
 18 13  2  0
 19  7  2  0
M  END
$$$$

     RDKit          3D

 23 25  0  0  0  0  0  0  0  0999 V2000
  -12.3920    0.5310  -26.4690 N   0  0  0  0  0  0  0  0  0  0  0  0
  -12.0850   -0.1070  -25.5760 C   0  0  0  0  0  0  0  0  0  0  0  0
  -11.7380   -0.9070  -24.4330 C   0  0  0  0  0  0  0  0  0  0  0  0
  -12.7430   -1.4260  -23.6210 C   0  0  0  0  0  0  0  0  0  0  0  0
  -12.3870   -2.1590  -22.5090 C   0  0  0  0  0  0  0  0  0  0  0  0
  -13.6390   -2.8150  -21.4900 Cl  0  0  0  0  0  0  0  0  0  0  0  0
  -10.3980   -1.1260  -24.1170 C   0  0  0  0  0  0  0  0  0  0  0  0
  -10.0560   -1.8580  -22.9840 C   0  0  0  0  0  0  0  0  0  0  0  0
  -11.0630   -2.3830  -22.1810 C   0  0  0  0  0  0  0  0  0  0  0  0
   -8.6030   -2.0710  -22.6230 C   0  0  0  0  0  0  0  0  0  0  0  0
   -8.0840   -1.1070  -21.5750 C   0  0  0  0  0  0  0  0  0  0  0  0
   -8.3220    0.1020  -21.6250 O   0  0  0  0  0  0  0  0  0  0  0  0
   -7.4260   -1.7030  -20.5540 N   0  0  0  0  0  0  0  0  0  0  0  0
   -6.4050   -1.2280  -19.7050 C   0  0  0  0  0  0  0  0  0  0  0  0
   -5.4580   -0.2530  -20.1580 C   0  0  0  0  0  0  0  0  0  0  0  0
   -5.0400   -0.1220  -21.5080 C   0  0  0  0  0  0  0  0  0  0  0  0
   -4.0430    0.7430  -21.8590 C   0  0  0  0  0  0  0  0  0  0  0  0
   -3.4220    1.5320  -20.9000 C   0  0  0  0  0  0  0  0  0  0  0  0
   -3.7790    1.4400  -19.5870 C   0  0  0  0  0  0  0  0  0  0  0  0
   -4.7930    0.5370  -19.1760 C   0  0  0  0  0  0  0  0  0  0  0  0
   -5.1000    0.2970  -17.8200 C   0  0  0  0  0  0  0  0  0  0  0  0
   -5.9270   -0.6450  -17.3980 N   0  0  0  0  0  0  0  0  0  0  0  0
   -6.5360   -1.3900  -18.3260 C   0  0  0  0  0  0  0  0  0  0  0  0
  2  1  3  0
  3  2  1  0
  4  3  2  0
  5  4  1  0
  6  5  1  0
  7  3  1  0
  8  7  2  0
  9  5  2  0
  9  8  1  0
 10  8  1  0
 11 10  1  0
 12 11  2  0
 13 11  1  0
 14 13  1  0
 15 14  1  0
 16 15  2  0
 17 16  1  0
 18 17  2  0
 19 18  1  0
 20 15  1  0
 20 19  2  0
 21 20  1  0
 22 21  2  0
 23 22  1  0
 23 14  2  0
M  END
$$$$

     RDKit          3D

 26 28  0  0  0  0  0  0  0  0999 V2000
  -13.9340   -2.8340  -21.6080 Cl  0  0  0  0  0  0  0  0  0  0  0  0
  -12.7390   -2.1900  -22.6980 C   0  0  0  0  0  0  0  0  0  0  0  0
  -13.1510   -1.4560  -23.7890 C   0  0  0  0  0  0  0  0  0  0  0  0
  -12.1870   -0.9020  -24.6190 C   0  0  0  0  0  0  0  0  0  0  0  0
  -10.8390   -1.0790  -24.3410 C   0  0  0  0  0  0  0  0  0  0  0  0
  -11.4010   -2.3920  -22.4190 C   0  0  0  0  0  0  0  0  0  0  0  0
  -10.4320   -1.8200  -23.2390 C   0  0  0  0  0  0  0  0  0  0  0  0
   -8.9640   -1.9890  -22.9160 C   0  0  0  0  0  0  0  0  0  0  0  0
   -8.4850   -1.1180  -21.7680 C   0  0  0  0  0  0  0  0  0  0  0  0
   -9.0430   -0.0640  -21.4770 O   0  0  0  0  0  0  0  0  0  0  0  0
   -7.3950   -1.5930  -21.1270 N   0  0  0  0  0  0  0  0  0  0  0  0
   -6.6130   -0.9630  -20.1340 C   0  0  0  0  0  0  0  0  0  0  0  0
   -6.9300   -0.9470  -18.7750 C   0  0  0  0  0  0  0  0  0  0  0  0
   -6.2200   -0.3200  -17.8270 N   0  0  0  0  0  0  0  0  0  0  0  0
   -5.1370    0.3380  -18.2090 C   0  0  0  0  0  0  0  0  0  0  0  0
   -5.4360   -0.2640  -20.5450 C   0  0  0  0  0  0  0  0  0  0  0  0
   -4.6830    0.4160  -19.5480 C   0  0  0  0  0  0  0  0  0  0  0  0
   -3.5190    1.1260  -19.9340 C   0  0  0  0  0  0  0  0  0  0  0  0
   -3.1080    1.1370  -21.2340 C   0  0  0  0  0  0  0  0  0  0  0  0
   -4.9760   -0.2320  -21.8870 C   0  0  0  0  0  0  0  0  0  0  0  0
   -3.8190    0.4340  -22.2010 C   0  0  0  0  0  0  0  0  0  0  0  0
   -3.2410    0.2630  -23.4900 O   0  0  0  0  0  0  0  0  0  0  0  0
   -3.0240    1.5060  -24.4810 S   0  0  2  0  0  0  0  0  0  0  0  0
   -2.7830    0.9540  -25.7700 O   0  0  0  0  0  0  0  0  0  0  0  0
   -2.0460    2.3630  -23.9050 O   0  0  0  0  0  0  0  0  0  0  0  0
   -4.5800    2.2940  -24.4600 C   0  0  0  0  0  0  0  0  0  0  0  0
  2  1  1  0
  3  2  2  0
  4  3  1  0
  5  4  2  0
  6  2  1  0
  7  6  2  0
  7  5  1  0
  8  7  1  0
  9  8  1  0
 10  9  2  0
 11  9  1  0
 12 11  1  0
 13 12  2  0
 14 13  1  0
 15 14  2  0
 16 12  1  0
 17 16  2  0
 17 15  1  0
 18 17  1  0
 19 18  2  0
 20 16  1  0
 21 20  2  0
 21 19  1  0
 22 21  1  0
 23 22  1  0
 24 23  2  0
 25 23  2  0
 23 26  1  6
M  END
$$$$

     RDKit          3D

 22 24  0  0  0  0  0  0  0  0999 V2000
   -6.1670   -0.5140  -17.8220 N   0  0  0  0  0  0  0  0  0  0  0  0
   -5.2730   -0.2180  -20.4560 C   0  0  0  0  0  0  0  0  0  0  0  0
  -11.9980   -0.6500  -24.3270 C   0  0  0  0  0  0  0  0  0  0  0  0
   -8.9450   -0.0610  -21.5540 O   0  0  0  0  0  0  0  0  0  0  0  0
   -7.8320   -1.2910  -24.3000 C   0  0  0  0  0  0  0  0  0  0  0  0
   -4.6220    0.4060  -19.4010 C   0  0  0  0  0  0  0  0  0  0  0  0
   -8.2880   -1.0470  -21.8660 C   0  0  0  0  0  0  0  0  0  0  0  0
   -6.4100   -0.9840  -20.1640 C   0  0  0  0  0  0  0  0  0  0  0  0
   -6.7750   -1.1410  -18.8300 C   0  0  0  0  0  0  0  0  0  0  0  0
  -10.6360   -0.9010  -24.2480 C   0  0  0  0  0  0  0  0  0  0  0  0
  -12.3530   -2.1680  -22.5270 C   0  0  0  0  0  0  0  0  0  0  0  0
   -8.4930   -0.0200  -24.7670 C   0  0  0  0  0  0  0  0  0  0  0  0
  -12.8610   -1.2740  -23.4440 C   0  0  0  0  0  0  0  0  0  0  0  0
  -11.0030   -2.4380  -22.4480 C   0  0  0  0  0  0  0  0  0  0  0  0
   -4.6920   -0.1540  -21.8470 C   0  0  0  0  0  0  0  0  0  0  0  0
   -7.2870   -1.5070  -21.1140 N   0  0  0  0  0  0  0  0  0  0  0  0
   -5.4010    0.7440  -22.6890 O   0  0  0  0  0  0  0  0  0  0  0  0
   -9.8550   -0.2560  -25.1770 O   0  0  0  0  0  0  0  0  0  0  0  0
   -8.6100   -1.8840  -23.1040 C   0  0  1  0  0  0  0  0  0  0  0  0
   -5.1120    0.2500  -18.1200 C   0  0  0  0  0  0  0  0  0  0  0  0
  -10.1120   -1.7760  -23.2920 C   0  0  0  0  0  0  0  0  0  0  0  0
  -13.4430   -2.9860  -21.4430 Cl  0  0  0  0  0  0  0  0  0  0  0  0
  6  2  1  0
  7  4  2  0
  8  2  2  0
  9  8  1  0
  9  1  2  0
 10  3  2  0
 12  5  1  0
 13 11  2  0
 13  3  1  0
 14 11  1  0
 15  2  1  0
 16  7  1  0
 16  8  1  0
 17 15  1  0
 18 12  1  0
 18 10  1  0
 19  7  1  1
 19  5  1  0
 20  1  1  0
 20  6  2  0
 21 14  2  0
 21 19  1  0
 21 10  1  0
 22 11  1  0
M  END
$$$$

     RDKit          3D

 33 37  0  0  0  0  0  0  0  0999 V2000
   -9.3730    0.1430  -21.2800 O   0  0  0  0  0  0  0  0  0  0  0  0
   -8.8130   -0.7840  -21.8460 C   0  0  0  0  0  0  0  0  0  0  0  0
   -7.6320   -1.2840  -21.4120 N   0  0  0  0  0  0  0  0  0  0  0  0
   -6.8930   -0.8680  -20.2830 C   0  0  0  0  0  0  0  0  0  0  0  0
   -5.7080   -0.0940  -20.4910 C   0  0  0  0  0  0  0  0  0  0  0  0
   -5.2050    0.2530  -21.7720 C   0  0  0  0  0  0  0  0  0  0  0  0
   -4.0910    1.0360  -21.9030 C   0  0  0  0  0  0  0  0  0  0  0  0
   -3.4280    1.5130  -20.7810 C   0  0  0  0  0  0  0  0  0  0  0  0
   -3.8650    1.1950  -19.5260 C   0  0  0  0  0  0  0  0  0  0  0  0
   -5.0120    0.3810  -19.3460 C   0  0  0  0  0  0  0  0  0  0  0  0
   -5.5230    0.0350  -18.0730 C   0  0  0  0  0  0  0  0  0  0  0  0
   -6.6150   -0.6930  -17.8800 N   0  0  0  0  0  0  0  0  0  0  0  0
   -7.2720   -1.1240  -18.9640 C   0  0  0  0  0  0  0  0  0  0  0  0
   -9.3930   -1.3780  -23.1470 C   0  0  1  0  0  0  0  0  0  0  0  0
  -10.9150   -1.2320  -23.1370 C   0  0  0  0  0  0  0  0  0  0  0  0
  -11.6890   -2.0310  -22.3000 C   0  0  0  0  0  0  0  0  0  0  0  0
  -13.0550   -1.8320  -22.2490 C   0  0  0  0  0  0  0  0  0  0  0  0
  -13.9850   -2.7040  -21.0650 Cl  0  0  0  0  0  0  0  0  0  0  0  0
  -13.6870   -0.8980  -23.0470 C   0  0  0  0  0  0  0  0  0  0  0  0
  -12.9330   -0.1240  -23.9120 C   0  0  0  0  0  0  0  0  0  0  0  0
  -11.5590   -0.2910  -23.9430 C   0  0  0  0  0  0  0  0  0  0  0  0
  -10.8790    0.5030  -24.8310 O   0  0  0  0  0  0  0  0  0  0  0  0
   -9.7000   -0.1340  -25.3500 C   0  0  0  0  0  0  0  0  0  0  0  0
   -8.7310   -0.5130  -24.2490 C   0  0  0  0  0  0  0  0  0  0  0  0
   -9.0680   -2.8840  -23.3160 C   0  0  0  0  0  0  0  0  0  0  0  0
   -7.6990   -3.1900  -23.7250 N   0  0  0  0  0  0  0  0  0  0  0  0
   -7.3400   -4.5680  -23.4430 C   0  0  0  0  0  0  0  0  0  0  0  0
   -8.1550   -5.4370  -24.3480 C   0  0  0  0  0  0  0  0  0  0  0  0
   -8.9810   -6.5540  -24.0180 C   0  0  0  0  0  0  0  0  0  0  0  0
   -9.4940   -6.9820  -25.2010 C   0  0  0  0  0  0  0  0  0  0  0  0
   -8.1640   -5.2020  -25.6640 N   0  0  0  0  0  0  0  0  0  0  0  0
   -8.9800   -6.1660  -26.1690 N   0  0  0  0  0  0  0  0  0  0  0  0
   -9.1430   -6.2800  -27.6110 C   0  0  0  0  0  0  0  0  0  0  0  0
  2  1  2  0
  3  2  1  0
  4  3  1  0
  5  4  1  0
  6  5  2  0
  7  6  1  0
  8  7  2  0
  9  8  1  0
 10  5  1  0
 10  9  2  0
 11 10  1  0
 12 11  2  0
 13 12  1  0
 13  4  2  0
 14  2  1  0
 15 14  1  0
 16 15  2  0
 17 16  1  0
 18 17  1  0
 19 17  2  0
 20 19  1  0
 21 20  2  0
 21 15  1  0
 22 21  1  0
 23 22  1  0
 24 23  1  0
 24 14  1  0
 14 25  1  6
 26 25  1  0
 27 26  1  0
 28 27  1  0
 29 28  1  0
 30 29  2  0
 31 28  2  0
 32 30  1  0
 32 31  1  0
 33 32  1  0
M  CHG  1  26   1
M  END
$$$$

     RDKit          3D

 38 43  0  0  0  0  0  0  0  0999 V2000
   -9.3510    0.1200  -21.3110 O   0  0  0  0  0  0  0  0  0  0  0  0
   -8.8100   -0.8570  -21.8150 C   0  0  0  0  0  0  0  0  0  0  0  0
   -7.6400   -1.3570  -21.3340 N   0  0  0  0  0  0  0  0  0  0  0  0
   -6.8770   -0.8760  -20.2370 C   0  0  0  0  0  0  0  0  0  0  0  0
   -5.6910   -0.1150  -20.5010 C   0  0  0  0  0  0  0  0  0  0  0  0
   -5.2240    0.1900  -21.8050 C   0  0  0  0  0  0  0  0  0  0  0  0
   -4.1150    0.9670  -21.9920 C   0  0  0  0  0  0  0  0  0  0  0  0
   -3.4210    1.4810  -20.9040 C   0  0  0  0  0  0  0  0  0  0  0  0
   -3.8190    1.2050  -19.6290 C   0  0  0  0  0  0  0  0  0  0  0  0
   -4.9580    0.3950  -19.3900 C   0  0  0  0  0  0  0  0  0  0  0  0
   -5.4320    0.0920  -18.0900 C   0  0  0  0  0  0  0  0  0  0  0  0
   -6.5220   -0.6160  -17.8420 N   0  0  0  0  0  0  0  0  0  0  0  0
   -7.2170   -1.0690  -18.8950 C   0  0  0  0  0  0  0  0  0  0  0  0
   -9.4350   -1.5550  -23.0480 C   0  0  2  0  0  0  0  0  0  0  0  0
   -8.8860   -0.8130  -24.2930 C   0  0  0  0  0  0  0  0  0  0  0  0
   -9.4780    0.5740  -24.4300 C   0  0  0  0  0  0  0  0  0  0  0  0
  -10.9110    0.5350  -24.5840 O   0  0  0  0  0  0  0  0  0  0  0  0
  -10.9610   -1.3260  -22.9930 C   0  0  0  0  0  0  0  0  0  0  0  0
  -11.5820   -0.2830  -23.7060 C   0  0  0  0  0  0  0  0  0  0  0  0
  -12.9440   -0.0460  -23.6080 C   0  0  0  0  0  0  0  0  0  0  0  0
  -13.7170   -0.8520  -22.7930 C   0  0  0  0  0  0  0  0  0  0  0  0
  -11.7640   -2.1460  -22.2030 C   0  0  0  0  0  0  0  0  0  0  0  0
  -13.1210   -1.8860  -22.1060 C   0  0  0  0  0  0  0  0  0  0  0  0
  -14.0850   -2.8480  -21.0190 Cl  0  0  0  0  0  0  0  0  0  0  0  0
   -9.1640   -3.0820  -23.0860 C   0  0  0  0  0  0  0  0  0  0  0  0
   -8.0070   -3.5220  -23.9600 C   0  0  0  0  0  0  0  0  0  0  0  0
   -6.9310   -2.9360  -23.9370 O   0  0  0  0  0  0  0  0  0  0  0  0
   -8.1750   -4.6320  -24.7150 N   0  0  0  0  0  0  0  0  0  0  0  0
   -6.9750   -5.3820  -25.1230 C   0  0  2  0  0  0  0  0  0  0  0  0
   -7.0820   -5.9420  -26.5510 C   0  0  0  0  0  0  0  0  0  0  0  0
   -8.4330   -6.6000  -26.8080 C   0  0  0  0  0  0  0  0  0  0  0  0
   -9.5720   -5.6500  -26.4990 C   0  0  0  0  0  0  0  0  0  0  0  0
   -9.4970   -5.1750  -25.0630 C   0  0  0  0  0  0  0  0  0  0  0  0
   -6.4720   -6.3570  -24.0940 C   0  0  0  0  0  0  0  0  0  0  0  0
   -7.0850   -6.7130  -22.9260 C   0  0  0  0  0  0  0  0  0  0  0  0
   -6.2430   -7.5050  -22.2500 N   0  0  0  0  0  0  0  0  0  0  0  0
   -5.0870   -7.7090  -22.9210 N   0  0  0  0  0  0  0  0  0  0  0  0
   -5.2350   -7.0170  -24.0430 C   0  0  0  0  0  0  0  0  0  0  0  0
  2  1  2  0
  3  2  1  0
  4  3  1  0
  5  4  1  0
  6  5  2  0
  7  6  1  0
  8  7  2  0
  9  8  1  0
 10  5  1  0
 10  9  2  0
 11 10  1  0
 12 11  2  0
 13 12  1  0
 13  4  2  0
 14  2  1  0
 15 14  1  0
 16 15  1  0
 17 16  1  0
 18 14  1  0
 19 18  2  0
 19 17  1  0
 20 19  1  0
 21 20  2  0
 22 18  1  0
 23 22  2  0
 23 21  1  0
 24 23  1  0
 14 25  1  6
 26 25  1  0
 27 26  2  0
 28 26  1  0
 29 28  1  0
 30 29  1  0
 31 30  1  0
 32 31  1  0
 33 32  1  0
 33 28  1  0
 29 34  1  1
 35 34  1  0
 36 35  2  0
 37 36  1  0
 38 34  2  0
 38 37  1  0
M  END
$$$$

     RDKit          3D

 27 31  0  0  0  0  0  0  0  0999 V2000
   -9.2410    0.1650  -21.3500 O   0  0  0  0  0  0  0  0  0  0  0  0
   -8.7550   -0.7870  -21.9370 C   0  0  0  0  0  0  0  0  0  0  0  0
   -9.4240   -1.3460  -23.1920 C   0  0  2  0  0  0  0  0  0  0  0  0
   -8.7960   -0.6280  -24.4110 C   0  0  0  0  0  0  0  0  0  0  0  0
   -9.3740    0.7510  -24.6320 C   0  0  0  0  0  0  0  0  0  0  0  0
  -10.8180    0.6800  -24.7140 N   0  0  0  0  0  0  0  0  0  0  0  0
  -10.9470   -1.1360  -23.1340 C   0  0  0  0  0  0  0  0  0  0  0  0
  -11.5500   -0.0910  -23.8510 C   0  0  0  0  0  0  0  0  0  0  0  0
  -12.9110    0.1670  -23.6960 C   0  0  0  0  0  0  0  0  0  0  0  0
  -13.6730   -0.6060  -22.8390 C   0  0  0  0  0  0  0  0  0  0  0  0
  -11.7310   -1.9390  -22.3040 C   0  0  0  0  0  0  0  0  0  0  0  0
  -13.0760   -1.6490  -22.1610 C   0  0  0  0  0  0  0  0  0  0  0  0
  -14.0290   -2.5890  -21.0460 Cl  0  0  0  0  0  0  0  0  0  0  0  0
   -7.5720   -1.3530  -21.5300 N   0  0  0  0  0  0  0  0  0  0  0  0
   -7.1850   -2.7430  -21.8160 C   0  0  0  0  0  0  0  0  0  0  0  0
   -7.6680   -3.1890  -23.1800 C   0  0  0  0  0  0  0  0  0  0  0  0
   -9.1450   -2.8590  -23.3470 C   0  0  0  0  0  0  0  0  0  0  0  0
   -6.8690   -0.8460  -20.3850 C   0  0  0  0  0  0  0  0  0  0  0  0
   -5.7160   -0.0150  -20.5140 C   0  0  0  0  0  0  0  0  0  0  0  0
   -5.1710    0.3980  -21.7590 C   0  0  0  0  0  0  0  0  0  0  0  0
   -4.0730    1.2100  -21.8120 C   0  0  0  0  0  0  0  0  0  0  0  0
   -3.4640    1.6510  -20.6470 C   0  0  0  0  0  0  0  0  0  0  0  0
   -3.9470    1.2800  -19.4240 C   0  0  0  0  0  0  0  0  0  0  0  0
   -5.0840    0.4410  -19.3210 C   0  0  0  0  0  0  0  0  0  0  0  0
   -5.6440    0.0480  -18.0820 C   0  0  0  0  0  0  0  0  0  0  0  0
   -6.7160   -0.7260  -17.9650 N   0  0  0  0  0  0  0  0  0  0  0  0
   -7.2950   -1.1560  -19.0950 C   0  0  0  0  0  0  0  0  0  0  0  0
  2  1  2  0
  3  2  1  0
  3  4  1  6
  5  4  1  0
  6  5  1  0
  7  3  1  0
  8  7  2  0
  8  6  1  0
  9  8  1  0
 10  9  2  0
 11  7  1  0
 12 11  2  0
 12 10  1  0
 13 12  1  0
 14  2  1  0
 15 14  1  0
 16 15  1  0
 17 16  1  0
 17  3  1  0
 18 14  1  0
 19 18  1  0
 20 19  2  0
 21 20  1  0
 22 21  2  0
 23 22  1  0
 24 19  1  0
 24 23  2  0
 25 24  1  0
 26 25  2  0
 27 26  1  0
 27 18  2  0
M  END
$$$$

     RDKit          3D

 19 20  0  0  0  0  0  0  0  0999 V2000
  -13.4200   -3.0690  -21.5520 Cl  0  0  0  0  0  0  0  0  0  0  0  0
  -12.2060   -2.3020  -22.5350 C   0  0  0  0  0  0  0  0  0  0  0  0
  -12.5880   -1.3680  -23.4780 C   0  0  0  0  0  0  0  0  0  0  0  0
  -11.6170   -0.8290  -24.3130 C   0  0  0  0  0  0  0  0  0  0  0  0
  -10.2870   -1.1870  -24.1590 C   0  0  0  0  0  0  0  0  0  0  0  0
  -10.8850   -2.6680  -22.3700 C   0  0  0  0  0  0  0  0  0  0  0  0
   -9.9060   -2.0840  -23.1660 C   0  0  0  0  0  0  0  0  0  0  0  0
   -8.4370   -2.3470  -22.8590 C   0  0  1  0  0  0  0  0  0  0  0  0
   -7.5410   -2.2630  -24.0980 C   0  0  0  0  0  0  0  0  0  0  0  0
   -8.0290   -1.3940  -21.7310 C   0  0  0  0  0  0  0  0  0  0  0  0
   -8.7060   -0.4090  -21.4430 O   0  0  0  0  0  0  0  0  0  0  0  0
   -6.8740   -1.7110  -21.1010 N   0  0  0  0  0  0  0  0  0  0  0  0
   -6.2830   -0.9490  -20.0790 C   0  0  0  0  0  0  0  0  0  0  0  0
   -5.1490   -0.1660  -20.3520 C   0  0  0  0  0  0  0  0  0  0  0  0
   -4.6230    0.0210  -21.7510 C   0  0  0  0  0  0  0  0  0  0  0  0
   -4.5710    0.5080  -19.2840 C   0  0  0  0  0  0  0  0  0  0  0  0
   -5.1420    0.4110  -18.0280 C   0  0  0  0  0  0  0  0  0  0  0  0
   -6.2420   -0.3040  -17.7670 N   0  0  0  0  0  0  0  0  0  0  0  0
   -6.7940   -0.9760  -18.7830 C   0  0  0  0  0  0  0  0  0  0  0  0
  2  1  1  0
  3  2  2  0
  4  3  1  0
  5  4  2  0
  6  2  1  0
  7  6  2  0
  7  5  1  0
  8  7  1  0
  8  9  1  6
 10  8  1  0
 11 10  2  0
 12 10  1  0
 13 12  1  0
 14 13  2  0
 15 14  1  0
 16 14  1  0
 17 16  2  0
 18 17  1  0
 19 18  2  0
 19 13  1  0
M  END
$$$$

     RDKit          3D

 33 37  0  0  0  0  0  0  0  0999 V2000
  -13.8400   -2.7630  -21.5780 Cl  0  0  0  0  0  0  0  0  0  0  0  0
  -12.6600   -1.9060  -22.5320 C   0  0  0  0  0  0  0  0  0  0  0  0
  -11.3270   -2.2700  -22.4450 C   0  0  0  0  0  0  0  0  0  0  0  0
  -13.0780   -0.8960  -23.3630 C   0  0  0  0  0  0  0  0  0  0  0  0
  -12.1510   -0.2670  -24.1730 C   0  0  0  0  0  0  0  0  0  0  0  0
  -10.8030   -0.6190  -24.1320 C   0  0  0  0  0  0  0  0  0  0  0  0
   -9.8650    0.0340  -25.1180 C   0  0  0  0  0  0  0  0  0  0  0  0
   -8.4790   -0.0970  -24.6580 N   0  0  0  0  0  0  0  0  0  0  0  0
   -7.4520    1.1470  -24.8830 S   0  0  2  0  0  0  0  0  0  0  0  0
   -8.0720    2.0470  -25.8070 O   0  0  0  0  0  0  0  0  0  0  0  0
   -6.1770    0.5890  -25.2070 O   0  0  0  0  0  0  0  0  0  0  0  0
   -7.3390    1.9730  -23.3060 C   0  0  0  0  0  0  0  0  0  0  0  0
   -6.7430    3.3920  -23.3230 C   0  0  2  0  0  0  0  0  0  0  0  0
   -5.3270    3.6100  -23.7350 C   0  0  0  0  0  0  0  0  0  0  0  0
   -5.7480    3.8210  -22.2980 C   0  0  0  0  0  0  0  0  0  0  0  0
   -7.6670    4.3690  -23.8420 O   0  0  0  0  0  0  0  0  0  0  0  0
   -8.2670    5.3230  -22.9520 C   0  0  0  0  0  0  0  0  0  0  0  0
  -10.3780   -1.6040  -23.2250 C   0  0  0  0  0  0  0  0  0  0  0  0
   -8.8930   -1.8650  -23.0150 C   0  0  1  0  0  0  0  0  0  0  0  0
   -8.0850   -1.4580  -24.2510 C   0  0  0  0  0  0  0  0  0  0  0  0
   -8.3830   -1.0980  -21.7910 C   0  0  0  0  0  0  0  0  0  0  0  0
   -8.9590   -0.1010  -21.3600 O   0  0  0  0  0  0  0  0  0  0  0  0
   -7.2350   -1.5870  -21.2460 N   0  0  0  0  0  0  0  0  0  0  0  0
   -6.5170   -1.0720  -20.1370 C   0  0  0  0  0  0  0  0  0  0  0  0
   -5.3660   -0.2460  -20.3720 C   0  0  0  0  0  0  0  0  0  0  0  0
   -4.8110   -0.0100  -21.6570 C   0  0  0  0  0  0  0  0  0  0  0  0
   -3.7430    0.8280  -21.8200 C   0  0  0  0  0  0  0  0  0  0  0  0
   -3.1730    1.4730  -20.7260 C   0  0  0  0  0  0  0  0  0  0  0  0
   -3.6560    1.2620  -19.4670 C   0  0  0  0  0  0  0  0  0  0  0  0
   -4.7580    0.3950  -19.2520 C   0  0  0  0  0  0  0  0  0  0  0  0
   -5.3070    0.1450  -17.9700 C   0  0  0  0  0  0  0  0  0  0  0  0
   -6.3530   -0.6400  -17.7460 N   0  0  0  0  0  0  0  0  0  0  0  0
   -6.9310   -1.2210  -18.8100 C   0  0  0  0  0  0  0  0  0  0  0  0
  2  1  1  0
  3  2  2  0
  4  2  1  0
  5  4  2  0
  6  5  1  0
  7  6  1  0
  8  7  1  0
  9  8  1  0
 10  9  2  0
 11  9  2  0
  9 12  1  1
 13 12  1  1
 14 13  1  0
 15 13  1  0
 15 14  1  0
 16 13  1  0
 17 16  1  0
 18  3  1  0
 18  6  2  0
 19 18  1  0
 20 19  1  0
 20  8  1  0
 19 21  1  1
 22 21  2  0
 23 21  1  0
 24 23  1  0
 25 24  1  0
 26 25  2  0
 27 26  1  0
 28 27  2  0
 29 28  1  0
 30 29  2  0
 30 25  1  0
 31 30  1  0
 32 31  2  0
 33 32  1  0
 33 24  2  0
M  END
$$$$

     RDKit          3D

 16 17  0  0  0  0  0  0  0  0999 V2000
   -6.5890   -4.0430  -21.3320 N   0  0  0  0  0  0  0  0  0  0  0  0
   -7.1180   -3.6390  -18.9360 C   0  0  0  0  0  0  0  0  0  0  0  0
   -5.5070   -5.1930  -19.7470 O   0  0  0  0  0  0  0  0  0  0  0  0
   -6.3510   -4.3530  -20.0390 C   0  0  0  0  0  0  0  0  0  0  0  0
   -8.8960   -0.7150  -26.5770 C   0  0  0  0  0  0  0  0  0  0  0  0
   -5.8920   -4.7690  -22.3980 C   0  0  0  0  0  0  0  0  0  0  0  0
   -6.8340   -5.1650  -23.5130 C   0  0  0  0  0  0  0  0  0  0  0  0
   -8.3010   -3.3300  -22.9900 C   0  0  0  0  0  0  0  0  0  0  0  0
   -7.4280   -2.9360  -21.8120 C   0  0  0  0  0  0  0  0  0  0  0  0
   -6.9470   -3.2700  -25.0590 C   0  0  0  0  0  0  0  0  0  0  0  0
   -7.7980   -2.5070  -25.9410 C   0  0  0  0  0  0  0  0  0  0  0  0
   -8.3980   -2.8250  -27.1090 C   0  0  0  0  0  0  0  0  0  0  0  0
   -9.1120   -1.6800  -27.5340 C   0  0  0  0  0  0  0  0  0  0  0  0
   -7.4970   -3.9700  -24.0340 N   0  0  0  0  0  0  0  0  0  0  0  0
   -5.7400   -3.3100  -25.2860 O   0  0  0  0  0  0  0  0  0  0  0  0
   -8.0870   -1.2120  -25.6000 O   0  0  0  0  0  0  0  0  0  0  0  0
  4  3  2  0
  4  2  1  0
  4  1  1  0
  6  1  1  0
  7  6  1  0
  9  8  1  0
  9  1  1  0
 11 10  1  0
 12 11  2  0
 13 12  1  0
 13  5  2  0
 14 10  1  0
 14  8  1  0
 14  7  1  0
 15 10  2  0
 16 11  1  0
 16  5  1  0
M  END
$$$$

     RDKit          3D

 24 27  0  0  0  0  0  0  0  0999 V2000
  -13.5320   -3.0020  -21.7720 Cl  0  0  0  0  0  0  0  0  0  0  0  0
  -12.2330   -2.2350  -22.6290 C   0  0  0  0  0  0  0  0  0  0  0  0
  -12.4890   -1.2990  -23.6230 C   0  0  0  0  0  0  0  0  0  0  0  0
  -14.1120   -0.9480  -24.1240 Cl  0  0  0  0  0  0  0  0  0  0  0  0
  -10.9310   -2.5490  -22.2920 C   0  0  0  0  0  0  0  0  0  0  0  0
   -9.8620   -1.9370  -22.9410 C   0  0  0  0  0  0  0  0  0  0  0  0
  -10.1300   -0.9970  -23.9500 C   0  0  0  0  0  0  0  0  0  0  0  0
  -11.4450   -0.6730  -24.2760 C   0  0  0  0  0  0  0  0  0  0  0  0
   -8.4270   -2.2810  -22.5950 C   0  0  1  0  0  0  0  0  0  0  0  0
   -7.5630   -2.1700  -23.8710 C   0  0  0  0  0  0  0  0  0  0  0  0
   -7.6900   -0.7840  -24.4780 C   0  0  0  0  0  0  0  0  0  0  0  0
   -9.0940   -0.4170  -24.6590 N   0  0  0  0  0  0  0  0  0  0  0  0
   -7.9410   -1.3100  -21.5180 C   0  0  0  0  0  0  0  0  0  0  0  0
   -8.5410   -0.2650  -21.2550 O   0  0  0  0  0  0  0  0  0  0  0  0
   -6.8040   -1.6950  -20.8940 N   0  0  0  0  0  0  0  0  0  0  0  0
   -6.1670   -0.9930  -19.8460 C   0  0  0  0  0  0  0  0  0  0  0  0
   -5.1470   -0.0730  -20.1240 C   0  0  0  0  0  0  0  0  0  0  0  0
   -4.6320    0.1770  -21.5350 C   0  0  2  0  0  0  0  0  0  0  0  0
   -3.4610    1.0890  -21.7880 C   0  0  0  0  0  0  0  0  0  0  0  0
   -4.8240    1.5270  -22.1730 C   0  0  0  0  0  0  0  0  0  0  0  0
   -4.6190    0.6530  -19.0640 C   0  0  0  0  0  0  0  0  0  0  0  0
   -5.1120    0.4450  -17.7940 C   0  0  0  0  0  0  0  0  0  0  0  0
   -6.0780   -0.4310  -17.5060 N   0  0  0  0  0  0  0  0  0  0  0  0
   -6.5870   -1.1370  -18.5230 C   0  0  0  0  0  0  0  0  0  0  0  0
  2  1  1  0
  3  2  2  0
  4  3  1  0
  5  2  1  0
  6  5  2  0
  7  6  1  0
  8  3  1  0
  8  7  2  0
  9  6  1  0
 10  9  1  0
 11 10  1  0
 12 11  1  0
 12  7  1  0
  9 13  1  1
 14 13  2  0
 15 13  1  0
 16 15  1  0
 17 16  1  0
 18 17  1  1
 19 18  1  0
 20 19  1  0
 20 18  1  0
 21 17  2  0
 22 21  1  0
 23 22  2  0
 24 23  1  0
 24 16  2  0
M  END
$$$$

     RDKit          3D

 34 39  0  0  0  0  0  0  0  0999 V2000
  -10.6070    1.9030  -24.8070 O   0  0  0  0  0  0  0  0  0  0  0  0
  -10.1960    0.8110  -24.4510 C   0  0  0  0  0  0  0  0  0  0  0  0
   -8.9020    0.4350  -24.6700 N   0  0  0  0  0  0  0  0  0  0  0  0
   -7.9340    1.3320  -25.3650 C   0  0  1  0  0  0  0  0  0  0  0  0
   -7.1280    0.7220  -26.4810 C   0  0  0  0  0  0  0  0  0  0  0  0
   -8.2430    1.6590  -26.8030 C   0  0  0  0  0  0  0  0  0  0  0  0
   -7.2450    2.4170  -24.5760 C   0  0  0  0  0  0  0  0  0  0  0  0
   -6.3740    3.0700  -25.1350 O   0  0  0  0  0  0  0  0  0  0  0  0
   -7.6020    2.6030  -23.3100 N   0  0  0  0  0  0  0  0  0  0  0  0
   -6.9340    3.5850  -22.4740 C   0  0  0  0  0  0  0  0  0  0  0  0
  -11.0780   -0.1610  -23.7760 C   0  0  0  0  0  0  0  0  0  0  0  0
  -12.4580    0.0380  -23.8160 C   0  0  0  0  0  0  0  0  0  0  0  0
  -13.3130   -0.8660  -23.2100 C   0  0  0  0  0  0  0  0  0  0  0  0
  -12.7820   -1.9660  -22.5670 C   0  0  0  0  0  0  0  0  0  0  0  0
  -13.8530   -3.0610  -21.7350 Cl  0  0  0  0  0  0  0  0  0  0  0  0
  -11.4220   -2.2020  -22.5240 C   0  0  0  0  0  0  0  0  0  0  0  0
  -10.5570   -1.2860  -23.1180 C   0  0  0  0  0  0  0  0  0  0  0  0
   -9.0450   -1.4260  -22.9980 C   0  0  1  0  0  0  0  0  0  0  0  0
   -8.4010   -0.8900  -24.3030 C   0  0  0  0  0  0  0  0  0  0  0  0
   -8.5010   -0.5950  -21.8330 C   0  0  0  0  0  0  0  0  0  0  0  0
   -8.8930    0.5070  -21.4910 O   0  0  0  0  0  0  0  0  0  0  0  0
   -7.4650   -1.2780  -21.2680 N   0  0  0  0  0  0  0  0  0  0  0  0
   -7.2390   -2.5890  -21.9020 C   0  0  0  0  0  0  0  0  0  0  0  0
   -8.5470   -2.8480  -22.6490 C   0  0  0  0  0  0  0  0  0  0  0  0
   -6.6450   -0.7920  -20.1990 C   0  0  0  0  0  0  0  0  0  0  0  0
   -5.5200    0.0340  -20.4980 C   0  0  0  0  0  0  0  0  0  0  0  0
   -5.0940    0.3580  -21.8140 C   0  0  0  0  0  0  0  0  0  0  0  0
   -4.0180    1.1740  -22.0270 C   0  0  0  0  0  0  0  0  0  0  0  0
   -3.3150    1.7120  -20.9530 C   0  0  0  0  0  0  0  0  0  0  0  0
   -3.6880    1.4320  -19.6700 C   0  0  0  0  0  0  0  0  0  0  0  0
   -4.7910    0.5840  -19.4040 C   0  0  0  0  0  0  0  0  0  0  0  0
   -5.2230    0.2590  -18.0890 C   0  0  0  0  0  0  0  0  0  0  0  0
   -6.2710   -0.5100  -17.8160 N   0  0  0  0  0  0  0  0  0  0  0  0
   -6.9490   -1.0190  -18.8570 C   0  0  0  0  0  0  0  0  0  0  0  0
  2  1  2  0
  3  2  1  0
  4  3  1  1
  5  4  1  0
  6  5  1  0
  6  4  1  0
  7  4  1  0
  8  7  2  0
  9  7  1  0
 10  9  1  0
 11  2  1  0
 12 11  2  0
 13 12  1  0
 14 13  2  0
 15 14  1  0
 16 14  1  0
 17 16  2  0
 17 11  1  0
 18 17  1  0
 18 19  1  6
 19  3  1  0
 20 18  1  0
 21 20  2  0
 22 20  1  0
 23 22  1  0
 24 23  1  0
 24 18  1  0
 25 22  1  0
 26 25  1  0
 27 26  2  0
 28 27  1  0
 29 28  2  0
 30 29  1  0
 31 26  1  0
 31 30  2  0
 32 31  1  0
 33 32  2  0
 34 33  1  0
 34 25  2  0
M  END
$$$$

     RDKit          3D

 18 19  0  0  0  0  0  0  0  0999 V2000
  -13.4050   -3.1750  -21.6530 Br  0  0  0  0  0  0  0  0  0  0  0  0
  -12.1200   -2.2190  -22.6710 C   0  0  0  0  0  0  0  0  0  0  0  0
  -12.5490   -1.2940  -23.6020 C   0  0  0  0  0  0  0  0  0  0  0  0
  -11.5950   -0.6560  -24.3810 C   0  0  0  0  0  0  0  0  0  0  0  0
  -10.2490   -0.9180  -24.1870 C   0  0  0  0  0  0  0  0  0  0  0  0
  -10.7860   -2.5020  -22.4770 C   0  0  0  0  0  0  0  0  0  0  0  0
   -9.8310   -1.8230  -23.2210 C   0  0  0  0  0  0  0  0  0  0  0  0
   -8.3680   -2.0010  -22.9010 C   0  0  0  0  0  0  0  0  0  0  0  0
   -7.9740   -1.2090  -21.6710 C   0  0  0  0  0  0  0  0  0  0  0  0
   -8.6270   -0.2430  -21.2820 O   0  0  0  0  0  0  0  0  0  0  0  0
   -6.8270   -1.6120  -21.0960 N   0  0  0  0  0  0  0  0  0  0  0  0
   -6.2200   -0.9680  -19.9960 C   0  0  0  0  0  0  0  0  0  0  0  0
   -5.0970   -0.1530  -20.2000 C   0  0  0  0  0  0  0  0  0  0  0  0
   -4.5040    0.0670  -21.5700 C   0  0  0  0  0  0  0  0  0  0  0  0
   -6.7510   -1.0730  -18.7140 C   0  0  0  0  0  0  0  0  0  0  0  0
   -6.2500   -0.4290  -17.6570 N   0  0  0  0  0  0  0  0  0  0  0  0
   -5.1800    0.3470  -17.8620 C   0  0  0  0  0  0  0  0  0  0  0  0
   -4.5770    0.5040  -19.0930 C   0  0  0  0  0  0  0  0  0  0  0  0
  2  1  1  0
  3  2  2  0
  4  3  1  0
  5  4  2  0
  6  2  1  0
  7  6  2  0
  7  5  1  0
  8  7  1  0
  9  8  1  0
 10  9  2  0
 11  9  1  0
 12 11  1  0
 13 12  2  0
 14 13  1  0
 15 12  1  0
 16 15  2  0
 17 16  1  0
 18 17  2  0
 18 13  1  0
M  END
$$$$

     RDKit          3D

 18 19  0  0  0  0  0  0  0  0999 V2000
  -13.5200   -3.0300  -21.6800 Cl  0  0  0  0  0  0  0  0  0  0  0  0
  -12.2930   -2.2290  -22.6270 C   0  0  0  0  0  0  0  0  0  0  0  0
  -12.6740   -1.3380  -23.6070 C   0  0  0  0  0  0  0  0  0  0  0  0
  -11.6940   -0.8030  -24.4330 C   0  0  0  0  0  0  0  0  0  0  0  0
  -10.3610   -1.1250  -24.2380 C   0  0  0  0  0  0  0  0  0  0  0  0
  -10.9650   -2.5520  -22.4130 C   0  0  0  0  0  0  0  0  0  0  0  0
   -9.9780   -1.9790  -23.2110 C   0  0  0  0  0  0  0  0  0  0  0  0
   -8.5170   -2.1840  -22.8790 C   0  0  0  0  0  0  0  0  0  0  0  0
   -8.1000   -1.2750  -21.7370 C   0  0  0  0  0  0  0  0  0  0  0  0
   -8.8250   -0.3690  -21.3350 O   0  0  0  0  0  0  0  0  0  0  0  0
   -6.8840   -1.5470  -21.2120 N   0  0  0  0  0  0  0  0  0  0  0  0
   -6.2560   -0.8780  -20.1310 C   0  0  0  0  0  0  0  0  0  0  0  0
   -5.1180   -0.0810  -20.3600 C   0  0  0  0  0  0  0  0  0  0  0  0
   -4.5710    0.1490  -21.7460 C   0  0  0  0  0  0  0  0  0  0  0  0
   -6.6880   -0.9700  -18.8110 C   0  0  0  0  0  0  0  0  0  0  0  0
   -6.0870   -0.3700  -17.7960 N   0  0  0  0  0  0  0  0  0  0  0  0
   -4.9770    0.3910  -18.0240 N   0  0  0  0  0  0  0  0  0  0  0  0
   -4.5150    0.5260  -19.2620 C   0  0  0  0  0  0  0  0  0  0  0  0
  2  1  1  0
  3  2  2  0
  4  3  1  0
  5  4  2  0
  6  2  1  0
  7  6  2  0
  7  5  1  0
  8  7  1  0
  9  8  1  0
 10  9  2  0
 11  9  1  0
 12 11  1  0
 13 12  2  0
 14 13  1  0
 15 12  1  0
 16 15  2  0
 17 16  1  0
 18 17  2  0
 18 13  1  0
M  END
$$$$

     RDKit          3D

 32 36  0  0  0  0  0  0  0  0999 V2000
  -13.8920   -2.8370  -21.5090 Cl  0  0  0  0  0  0  0  0  0  0  0  0
  -12.7220   -1.9770  -22.4740 C   0  0  0  0  0  0  0  0  0  0  0  0
  -11.3820   -2.2910  -22.3470 C   0  0  0  0  0  0  0  0  0  0  0  0
  -13.1580   -1.0160  -23.3570 C   0  0  0  0  0  0  0  0  0  0  0  0
  -12.2330   -0.3790  -24.1610 C   0  0  0  0  0  0  0  0  0  0  0  0
  -10.8740   -0.6850  -24.0820 C   0  0  0  0  0  0  0  0  0  0  0  0
   -9.9160   -0.0140  -25.0410 C   0  0  0  0  0  0  0  0  0  0  0  0
   -8.5200   -0.1660  -24.6160 N   0  0  0  0  0  0  0  0  0  0  0  0
   -7.5910    0.7990  -24.7330 C   0  0  0  0  0  0  0  0  0  0  0  0
   -6.3900    0.5670  -24.6750 O   0  0  0  0  0  0  0  0  0  0  0  0
   -8.0620    2.1900  -24.9190 C   0  0  0  0  0  0  0  0  0  0  0  0
   -8.7220    2.7950  -25.9900 C   0  0  0  0  0  0  0  0  0  0  0  0
   -8.9890    4.0870  -25.5580 C   0  0  0  0  0  0  0  0  0  0  0  0
   -8.5390    4.3180  -24.3290 N   0  0  0  0  0  0  0  0  0  0  0  0
   -7.9520    3.1440  -23.9530 N   0  0  0  0  0  0  0  0  0  0  0  0
   -7.2630    3.0870  -22.6690 C   0  0  0  0  0  0  0  0  0  0  0  0
  -10.4410   -1.6380  -23.1450 C   0  0  0  0  0  0  0  0  0  0  0  0
   -8.9590   -1.9360  -22.9920 C   0  0  1  0  0  0  0  0  0  0  0  0
   -8.1940   -1.5470  -24.2580 C   0  0  0  0  0  0  0  0  0  0  0  0
   -8.4400   -1.0840  -21.8350 C   0  0  0  0  0  0  0  0  0  0  0  0
   -8.9830   -0.0270  -21.5020 O   0  0  0  0  0  0  0  0  0  0  0  0
   -7.3450   -1.5860  -21.2180 N   0  0  0  0  0  0  0  0  0  0  0  0
   -6.6700   -1.0640  -20.0920 C   0  0  0  0  0  0  0  0  0  0  0  0
   -5.5680   -0.1740  -20.2960 C   0  0  0  0  0  0  0  0  0  0  0  0
   -4.9740    0.0680  -21.5610 C   0  0  0  0  0  0  0  0  0  0  0  0
   -3.8910    0.8950  -21.6850 C   0  0  0  0  0  0  0  0  0  0  0  0
   -3.3590    1.5350  -20.5710 C   0  0  0  0  0  0  0  0  0  0  0  0
   -3.9000    1.3400  -19.3310 C   0  0  0  0  0  0  0  0  0  0  0  0
   -5.0050    0.4670  -19.1570 C   0  0  0  0  0  0  0  0  0  0  0  0
   -5.5510    0.1550  -17.8880 C   0  0  0  0  0  0  0  0  0  0  0  0
   -6.5490   -0.6960  -17.6960 N   0  0  0  0  0  0  0  0  0  0  0  0
   -7.0860   -1.2800  -18.7760 C   0  0  0  0  0  0  0  0  0  0  0  0
  2  1  1  0
  3  2  2  0
  4  2  1  0
  5  4  2  0
  6  5  1  0
  7  6  1  0
  8  7  1  0
  9  8  1  0
 10  9  2  0
 11  9  1  0
 12 11  2  0
 13 12  1  0
 14 13  2  0
 15 14  1  0
 15 11  1  0
 16 15  1  0
 17  3  1  0
 17  6  2  0
 18 17  1  0
 19 18  1  0
 19  8  1  0
 18 20  1  1
 21 20  2  0
 22 20  1  0
 23 22  1  0
 24 23  1  0
 25 24  2  0
 26 25  1  0
 27 26  2  0
 28 27  1  0
 29 24  1  0
 29 28  2  0
 30 29  1  0
 31 30  2  0
 32 31  1  0
 32 23  2  0
M  END
$$$$

     RDKit          3D

 28 30  0  0  0  0  0  0  0  0999 V2000
  -13.4900   -2.5200  -21.1180 F   0  0  0  0  0  0  0  0  0  0  0  0
  -12.7580   -2.0800  -22.1740 C   0  0  0  0  0  0  0  0  0  0  0  0
  -13.2530   -1.0400  -22.9200 C   0  0  0  0  0  0  0  0  0  0  0  0
  -12.5240   -0.6150  -24.0170 C   0  0  0  0  0  0  0  0  0  0  0  0
  -11.5700   -2.7040  -22.4490 C   0  0  0  0  0  0  0  0  0  0  0  0
  -10.8420   -2.2760  -23.5440 C   0  0  0  0  0  0  0  0  0  0  0  0
  -11.3270   -1.2420  -24.3270 C   0  0  0  0  0  0  0  0  0  0  0  0
  -10.3830   -0.6810  -25.7000 S   0  0  2  0  0  0  0  0  0  0  0  0
  -11.2020    0.2060  -26.4700 O   0  0  0  0  0  0  0  0  0  0  0  0
   -9.7890   -1.8240  -26.3310 O   0  0  0  0  0  0  0  0  0  0  0  0
   -9.1780    0.1950  -25.0420 N   0  0  0  0  0  0  0  0  0  0  0  0
   -9.0640    1.5610  -24.6590 C   0  0  0  0  0  0  0  0  0  0  0  0
   -9.8940    2.5550  -25.1820 C   0  0  0  0  0  0  0  0  0  0  0  0
   -9.8050    3.8530  -24.7020 C   0  0  0  0  0  0  0  0  0  0  0  0
   -8.9010    4.1700  -23.7070 C   0  0  0  0  0  0  0  0  0  0  0  0
   -8.0930    3.1890  -23.1520 C   0  0  0  0  0  0  0  0  0  0  0  0
   -8.1890    1.8720  -23.6070 C   0  0  0  0  0  0  0  0  0  0  0  0
   -7.5870    0.7870  -22.9240 N   0  0  0  0  0  0  0  0  0  0  0  0
   -8.1170    0.1260  -21.8630 C   0  0  0  0  0  0  0  0  0  0  0  0
   -9.1140    0.5110  -21.2570 O   0  0  0  0  0  0  0  0  0  0  0  0
   -7.4980   -1.2280  -21.5030 C   0  0  1  0  0  0  0  0  0  0  0  0
   -6.5930   -1.6980  -22.5000 O   0  0  0  0  0  0  0  0  0  0  0  0
   -6.7120   -0.8740  -20.2490 C   0  0  0  0  0  0  0  0  0  0  0  0
   -7.2620   -0.9930  -18.9800 C   0  0  0  0  0  0  0  0  0  0  0  0
   -6.6700   -0.5640  -17.8600 N   0  0  0  0  0  0  0  0  0  0  0  0
   -5.4590   -0.0020  -17.9810 C   0  0  0  0  0  0  0  0  0  0  0  0
   -4.8080    0.1410  -19.1900 C   0  0  0  0  0  0  0  0  0  0  0  0
   -5.4480   -0.3060  -20.3320 C   0  0  0  0  0  0  0  0  0  0  0  0
  2  1  1  0
  3  2  2  0
  4  3  1  0
  5  2  1  0
  6  5  2  0
  7  4  2  0
  7  6  1  0
  8  7  1  0
  9  8  2  0
 10  8  2  0
  8 11  1  1
 12 11  1  0
 13 12  2  0
 14 13  1  0
 15 14  2  0
 16 15  1  0
 17 16  2  0
 17 12  1  0
 18 17  1  0
 19 18  1  0
 20 19  2  0
 21 19  1  0
 21 22  1  6
 23 21  1  0
 24 23  2  0
 25 24  1  0
 26 25  2  0
 27 26  1  0
 28 23  1  0
 28 27  2  0
M  END
$$$$

     RDKit          3D

 27 30  0  0  0  0  0  0  0  0999 V2000
   -6.1230    0.0290  -17.2300 O   0  0  0  0  0  0  0  0  0  0  0  0
   -5.4830   -0.1690  -18.2720 C   0  0  0  0  0  0  0  0  0  0  0  0
   -5.7800   -1.2140  -19.1970 C   0  0  0  0  0  0  0  0  0  0  0  0
   -4.4600    0.6720  -18.6240 N   0  0  0  0  0  0  0  0  0  0  0  0
   -3.7470    0.5880  -19.8180 C   0  0  0  0  0  0  0  0  0  0  0  0
   -4.0840   -0.4080  -20.7560 C   0  0  0  0  0  0  0  0  0  0  0  0
   -3.4140   -0.4450  -21.9790 C   0  0  0  0  0  0  0  0  0  0  0  0
   -2.3840    0.4470  -22.2360 C   0  0  0  0  0  0  0  0  0  0  0  0
   -2.0300    1.3940  -21.2970 C   0  0  0  0  0  0  0  0  0  0  0  0
   -2.7120    1.4820  -20.0930 C   0  0  0  0  0  0  0  0  0  0  0  0
   -5.1320   -1.3540  -20.3910 C   0  0  0  0  0  0  0  0  0  0  0  0
   -5.5160   -2.4780  -21.2970 C   0  0  0  0  0  0  0  0  0  0  0  0
   -4.9340   -3.5540  -21.2010 O   0  0  0  0  0  0  0  0  0  0  0  0
   -6.4660   -2.2540  -22.2210 N   0  0  0  0  0  0  0  0  0  0  0  0
   -7.0300   -3.2540  -23.1340 C   0  0  0  0  0  0  0  0  0  0  0  0
   -8.5320   -3.3930  -22.9020 C   0  0  0  0  0  0  0  0  0  0  0  0
   -7.0870   -0.9420  -22.3700 C   0  0  0  0  0  0  0  0  0  0  0  0
   -8.5860   -0.9770  -22.2650 C   0  0  0  0  0  0  0  0  0  0  0  0
   -9.1820   -0.0550  -21.7280 O   0  0  0  0  0  0  0  0  0  0  0  0
   -9.2060   -2.0850  -22.7620 N   0  0  0  0  0  0  0  0  0  0  0  0
  -10.5880   -2.0580  -23.1010 C   0  0  0  0  0  0  0  0  0  0  0  0
  -11.4970   -2.7260  -22.2840 C   0  0  0  0  0  0  0  0  0  0  0  0
  -12.8440   -2.6080  -22.5510 C   0  0  0  0  0  0  0  0  0  0  0  0
  -13.9770   -3.3600  -21.4710 Cl  0  0  0  0  0  0  0  0  0  0  0  0
  -11.0380   -1.3140  -24.1890 C   0  0  0  0  0  0  0  0  0  0  0  0
  -12.3980   -1.2270  -24.4440 C   0  0  0  0  0  0  0  0  0  0  0  0
  -13.3140   -1.8720  -23.6230 C   0  0  0  0  0  0  0  0  0  0  0  0
  2  1  2  0
  3  2  1  0
  4  2  1  0
  5  4  1  0
  6  5  2  0
  7  6  1  0
  8  7  2  0
  9  8  1  0
 10  9  2  0
 10  5  1  0
 11  3  2  0
 11  6  1  0
 12 11  1  0
 13 12  2  0
 14 12  1  0
 15 14  1  0
 16 15  1  0
 17 14  1  0
 18 17  1  0
 19 18  2  0
 20 18  1  0
 20 16  1  0
 21 20  1  0
 22 21  2  0
 23 22  1  0
 24 23  1  0
 25 21  1  0
 26 25  2  0
 27 26  1  0
 27 23  2  0
M  END
$$$$

     RDKit          3D

 36 41  0  0  0  0  0  0  0  0999 V2000
   -9.0850    6.1520  -22.7800 N   0  0  0  0  0  0  0  0  0  0  0  0
   -8.3300    5.3010  -22.7590 C   0  0  0  0  0  0  0  0  0  0  0  0
   -7.4030    4.1640  -22.6960 C   0  0  2  0  0  0  0  0  0  0  0  0
   -6.1400    4.3410  -21.8820 C   0  0  0  0  0  0  0  0  0  0  0  0
   -6.0500    4.2970  -23.3590 C   0  0  0  0  0  0  0  0  0  0  0  0
   -8.0950    2.8130  -22.7990 C   0  0  0  0  0  0  0  0  0  0  0  0
   -8.5160    2.2270  -24.4270 S   0  0  1  0  0  0  0  0  0  0  0  0
   -9.2710    3.2400  -25.0900 O   0  0  0  0  0  0  0  0  0  0  0  0
   -7.3270    1.7270  -25.0420 O   0  0  0  0  0  0  0  0  0  0  0  0
   -9.5100    0.9560  -24.1920 N   0  0  0  0  0  0  0  0  0  0  0  0
  -10.9550    1.0810  -24.4190 C   0  0  0  0  0  0  0  0  0  0  0  0
   -9.0290   -0.4300  -24.3090 C   0  0  0  0  0  0  0  0  0  0  0  0
   -9.6030   -1.2480  -23.1230 C   0  0  2  0  0  0  0  0  0  0  0  0
  -11.1160   -1.0220  -22.9660 C   0  0  0  0  0  0  0  0  0  0  0  0
  -11.7300    0.0830  -23.5820 C   0  0  0  0  0  0  0  0  0  0  0  0
  -13.0970    0.2810  -23.4090 C   0  0  0  0  0  0  0  0  0  0  0  0
  -13.8510   -0.5690  -22.6200 C   0  0  0  0  0  0  0  0  0  0  0  0
  -11.8860   -1.8960  -22.1900 C   0  0  0  0  0  0  0  0  0  0  0  0
  -13.2340   -1.6400  -22.0140 C   0  0  0  0  0  0  0  0  0  0  0  0
  -14.1720   -2.6910  -20.9810 Cl  0  0  0  0  0  0  0  0  0  0  0  0
   -8.8720   -0.7330  -21.8870 C   0  0  0  0  0  0  0  0  0  0  0  0
   -9.3250    0.2050  -21.2640 O   0  0  0  0  0  0  0  0  0  0  0  0
   -7.6750   -1.3110  -21.5490 N   0  0  0  0  0  0  0  0  0  0  0  0
   -7.2890   -2.6870  -21.9160 C   0  0  0  0  0  0  0  0  0  0  0  0
   -7.8340   -3.0750  -23.2790 C   0  0  0  0  0  0  0  0  0  0  0  0
   -9.3200   -2.7490  -23.3680 C   0  0  0  0  0  0  0  0  0  0  0  0
   -6.9130   -0.8190  -20.4330 C   0  0  0  0  0  0  0  0  0  0  0  0
   -5.7510   -0.0200  -20.6580 C   0  0  0  0  0  0  0  0  0  0  0  0
   -5.2590    0.3220  -21.9470 C   0  0  0  0  0  0  0  0  0  0  0  0
   -4.1550    1.1120  -22.0930 C   0  0  0  0  0  0  0  0  0  0  0  0
   -3.4930    1.6150  -20.9810 C   0  0  0  0  0  0  0  0  0  0  0  0
   -3.9200    1.3120  -19.7200 C   0  0  0  0  0  0  0  0  0  0  0  0
   -5.0530    0.4840  -19.5220 C   0  0  0  0  0  0  0  0  0  0  0  0
   -5.5400    0.1310  -18.2360 C   0  0  0  0  0  0  0  0  0  0  0  0
   -6.6070   -0.6270  -18.0280 N   0  0  0  0  0  0  0  0  0  0  0  0
   -7.2650   -1.0750  -19.1090 C   0  0  0  0  0  0  0  0  0  0  0  0
  2  1  3  0
  3  2  1  6
  4  3  1  0
  5  4  1  0
  5  3  1  0
  6  3  1  0
  7  6  1  1
  8  7  2  0
  9  7  2  0
 10  7  1  0
 11 10  1  0
 12 10  1  0
 13 12  1  6
 14 13  1  0
 15 14  2  0
 15 11  1  0
 16 15  1  0
 17 16  2  0
 18 14  1  0
 19 18  2  0
 19 17  1  0
 20 19  1  0
 21 13  1  0
 22 21  2  0
 23 21  1  0
 24 23  1  0
 25 24  1  0
 26 25  1  0
 26 13  1  0
 27 23  1  0
 28 27  1  0
 29 28  2  0
 30 29  1  0
 31 30  2  0
 32 31  1  0
 33 28  1  0
 33 32  2  0
 34 33  1  0
 35 34  2  0
 36 35  1  0
 36 27  2  0
M  END
$$$$

     RDKit          3D

 15 16  0  0  0  0  0  0  0  0999 V2000
   -7.9840   -2.4910  -21.0680 C   0  0  0  0  0  0  0  0  0  0  0  0
   -6.9880   -2.7200  -18.7430 C   0  0  0  0  0  0  0  0  0  0  0  0
   -6.1860   -1.4040  -18.6450 C   0  0  0  0  0  0  0  0  0  0  0  0
   -5.2030   -0.9870  -19.5400 C   0  0  0  0  0  0  0  0  0  0  0  0
   -4.7440    0.2250  -19.1050 C   0  0  0  0  0  0  0  0  0  0  0  0
   -3.6560    1.0680  -19.7720 C   0  0  0  0  0  0  0  0  0  0  0  0
   -6.0990   -4.1440  -20.6670 C   0  0  0  0  0  0  0  0  0  0  0  0
   -5.2140   -5.5470  -22.6110 C   0  0  2  0  0  0  0  0  0  0  0  0
   -5.8570   -6.5870  -23.5340 C   0  0  0  0  0  0  0  0  0  0  0  0
   -5.4530   -6.9730  -22.1040 C   0  0  0  0  0  0  0  0  0  0  0  0
   -7.0240   -3.1290  -20.1590 N   0  0  0  0  0  0  0  0  0  0  0  0
   -6.3140   -0.4490  -17.7120 N   0  0  0  0  0  0  0  0  0  0  0  0
   -6.1330   -4.5280  -22.0870 N   0  0  0  0  0  0  0  0  0  0  0  0
   -5.4160    0.5300  -18.0060 O   0  0  0  0  0  0  0  0  0  0  0  0
   -5.3250   -4.6530  -19.9170 O   0  0  0  0  0  0  0  0  0  0  0  0
  3  2  1  0
  4  3  1  0
  5  4  2  0
  6  5  1  0
  9  8  1  0
 10  9  1  0
 10  8  1  0
 11  7  1  0
 11  2  1  0
 11  1  1  0
 12  3  2  0
 13  7  1  0
  8 13  1  1
 14 12  1  0
 14  5  1  0
 15  7  2  0
M  END
$$$$

     RDKit          3D

 16 17  0  0  0  0  0  0  0  0999 V2000
   -8.1790    1.1880  -23.0720 O   0  0  0  0  0  0  0  0  0  0  0  0
   -9.4710    0.5810  -22.9170 S   0  0  1  0  0  0  0  0  0  0  0  0
  -10.0350    0.5180  -21.5980 O   0  0  0  0  0  0  0  0  0  0  0  0
  -10.6050    1.4060  -23.9700 C   0  0  0  0  0  0  0  0  0  0  0  0
   -9.3920   -1.0640  -23.5600 C   0  0  0  0  0  0  0  0  0  0  0  0
   -9.1160   -1.2550  -24.9030 C   0  0  0  0  0  0  0  0  0  0  0  0
   -8.9140   -2.5350  -25.3810 C   0  0  0  0  0  0  0  0  0  0  0  0
   -8.9970   -3.6360  -24.5340 C   0  0  0  0  0  0  0  0  0  0  0  0
   -9.3180   -3.4240  -23.1920 C   0  0  0  0  0  0  0  0  0  0  0  0
   -9.5170   -2.1460  -22.7040 C   0  0  0  0  0  0  0  0  0  0  0  0
   -8.7190   -4.9220  -25.0130 N   0  0  0  0  0  0  0  0  0  0  0  0
   -8.3710   -5.1270  -26.4260 C   0  0  0  0  0  0  0  0  0  0  0  0
   -7.6230   -6.4340  -26.6080 C   0  0  0  0  0  0  0  0  0  0  0  0
   -8.3870   -7.5530  -26.0150 N   0  0  0  0  0  0  0  0  0  0  0  0
   -8.6850   -7.3090  -24.5920 C   0  0  0  0  0  0  0  0  0  0  0  0
   -9.4890   -6.0400  -24.4610 C   0  0  0  0  0  0  0  0  0  0  0  0
  2  1  2  0
  3  2  2  0
  2  4  1  6
  5  2  1  0
  6  5  2  0
  7  6  1  0
  8  7  2  0
  9  8  1  0
 10  9  2  0
 10  5  1  0
 11  8  1  0
 12 11  1  0
 13 12  1  0
 14 13  1  0
 15 14  1  0
 16 15  1  0
 16 11  1  0
M  CHG  1  14   1
M  END
$$$$

     RDKit          3D

 21 23  0  0  0  0  0  0  0  0999 V2000
   -8.7680   -0.1740  -21.3190 O   0  0  0  0  0  0  0  0  0  0  0  0
   -8.2250   -1.2230  -21.6520 C   0  0  0  0  0  0  0  0  0  0  0  0
   -8.7240   -2.0480  -22.8230 C   0  0  0  0  0  0  0  0  0  0  0  0
  -10.2000   -1.8380  -23.0720 C   0  0  0  0  0  0  0  0  0  0  0  0
  -10.6420   -0.9580  -24.0510 C   0  0  0  0  0  0  0  0  0  0  0  0
  -11.9930   -0.6730  -24.1910 C   0  0  0  0  0  0  0  0  0  0  0  0
  -12.9250   -1.2840  -23.3660 C   0  0  0  0  0  0  0  0  0  0  0  0
  -11.1370   -2.4730  -22.2670 C   0  0  0  0  0  0  0  0  0  0  0  0
  -12.4800   -2.1960  -22.4300 C   0  0  0  0  0  0  0  0  0  0  0  0
  -13.6430   -3.0920  -21.4930 Cl  0  0  0  0  0  0  0  0  0  0  0  0
   -7.1220   -1.7090  -21.0430 N   0  0  0  0  0  0  0  0  0  0  0  0
   -6.3830   -1.1100  -20.0100 C   0  0  0  0  0  0  0  0  0  0  0  0
   -5.2110   -0.3630  -20.3470 C   0  0  0  0  0  0  0  0  0  0  0  0
   -4.6700   -0.2810  -21.6560 C   0  0  0  0  0  0  0  0  0  0  0  0
   -3.5290    0.4400  -21.8610 C   0  0  0  0  0  0  0  0  0  0  0  0
   -2.8700    1.1020  -20.8970 N   0  0  0  0  0  0  0  0  0  0  0  0
   -3.3670    1.0590  -19.6660 C   0  0  0  0  0  0  0  0  0  0  0  0
   -4.5420    0.3390  -19.3110 C   0  0  0  0  0  0  0  0  0  0  0  0
   -5.0940    0.2630  -18.0070 C   0  0  0  0  0  0  0  0  0  0  0  0
   -6.1860   -0.4360  -17.6950 N   0  0  0  0  0  0  0  0  0  0  0  0
   -6.7920   -1.1110  -18.6760 C   0  0  0  0  0  0  0  0  0  0  0  0
  2  1  2  0
  3  2  1  0
  4  3  1  0
  5  4  2  0
  6  5  1  0
  7  6  2  0
  8  4  1  0
  9  8  2  0
  9  7  1  0
 10  9  1  0
 11  2  1  0
 12 11  1  0
 13 12  1  0
 14 13  2  0
 15 14  1  0
 16 15  2  0
 17 16  1  0
 18 17  2  0
 18 13  1  0
 19 18  1  0
 20 19  2  0
 21 20  1  0
 21 12  2  0
M  END
$$$$

     RDKit          3D

 37 40  0  0  0  0  0  0  0  0999 V2000
   -5.1450   -3.0500  -21.4430 O   0  0  0  0  0  0  0  0  0  0  0  0
   -6.2830   -3.2730  -21.8160 C   0  0  0  0  0  0  0  0  0  0  0  0
   -6.5920   -4.6880  -22.2020 C   0  0  0  0  0  0  0  0  0  0  0  0
   -7.6320   -5.0940  -22.9870 O   0  0  0  0  0  0  0  0  0  0  0  0
   -7.4750   -6.4550  -23.1590 C   0  0  0  0  0  0  0  0  0  0  0  0
   -6.3980   -6.8860  -22.5200 C   0  0  0  0  0  0  0  0  0  0  0  0
   -5.8140   -5.7530  -21.8920 C   0  0  0  0  0  0  0  0  0  0  0  0
   -7.2180   -2.3010  -21.9550 N   0  0  0  0  0  0  0  0  0  0  0  0
   -8.5050   -2.5030  -22.5690 C   0  0  0  0  0  0  0  0  0  0  0  0
   -8.6450   -2.3950  -23.9510 C   0  0  0  0  0  0  0  0  0  0  0  0
   -9.8970   -2.4900  -24.5310 C   0  0  0  0  0  0  0  0  0  0  0  0
   -9.6350   -2.7300  -21.7880 C   0  0  0  0  0  0  0  0  0  0  0  0
  -10.8830   -2.8360  -22.3830 C   0  0  0  0  0  0  0  0  0  0  0  0
  -11.0350   -2.7250  -23.7660 C   0  0  0  0  0  0  0  0  0  0  0  0
  -12.3910   -2.9020  -24.4630 C   0  0  2  0  0  0  0  0  0  0  0  0
  -12.3340   -4.1100  -25.4040 C   0  0  0  0  0  0  0  0  0  0  0  0
  -12.7140   -1.6530  -25.2970 C   0  0  0  0  0  0  0  0  0  0  0  0
  -13.5550   -3.1220  -23.4760 C   0  0  0  0  0  0  0  0  0  0  0  0
   -6.8150   -0.9030  -21.6580 C   0  0  2  0  0  0  0  0  0  0  0  0
   -6.1880   -0.7340  -20.2820 C   0  0  0  0  0  0  0  0  0  0  0  0
   -6.8150   -1.1900  -19.1280 C   0  0  0  0  0  0  0  0  0  0  0  0
   -6.4400   -0.8560  -17.8840 N   0  0  0  0  0  0  0  0  0  0  0  0
   -5.3780   -0.0530  -17.7600 C   0  0  0  0  0  0  0  0  0  0  0  0
   -4.6660    0.4330  -18.8390 C   0  0  0  0  0  0  0  0  0  0  0  0
   -5.0790    0.0790  -20.1100 C   0  0  0  0  0  0  0  0  0  0  0  0
   -7.9300    0.1280  -21.8900 C   0  0  0  0  0  0  0  0  0  0  0  0
   -8.8500    0.2500  -21.0890 O   0  0  0  0  0  0  0  0  0  0  0  0
   -7.7910    0.8820  -22.9800 N   0  0  0  0  0  0  0  0  0  0  0  0
   -8.7770    1.8930  -23.3470 C   0  0  0  0  0  0  0  0  0  0  0  0
  -10.1100    1.2600  -23.7480 C   0  0  0  0  0  0  0  0  0  0  0  0
  -11.2410    2.2590  -23.8390 C   0  0  0  0  0  0  0  0  0  0  0  0
  -12.0320    2.5250  -22.7260 C   0  0  0  0  0  0  0  0  0  0  0  0
  -13.0310    3.4630  -22.8300 C   0  0  0  0  0  0  0  0  0  0  0  0
  -13.7550    3.7520  -21.7180 F   0  0  0  0  0  0  0  0  0  0  0  0
  -13.3070    4.1440  -23.9830 C   0  0  0  0  0  0  0  0  0  0  0  0
  -12.5220    3.8750  -25.0940 C   0  0  0  0  0  0  0  0  0  0  0  0
  -11.4980    2.9410  -25.0220 C   0  0  0  0  0  0  0  0  0  0  0  0
  2  1  2  0
  3  2  1  0
  4  3  1  0
  5  4  1  0
  6  5  2  0
  7  6  1  0
  7  3  2  0
  8  2  1  0
  9  8  1  0
 10  9  2  0
 11 10  1  0
 12  9  1  0
 13 12  2  0
 14 13  1  0
 14 11  2  0
 15 14  1  0
 15 16  1  6
 17 15  1  0
 18 15  1  0
 19  8  1  1
 20 19  1  0
 21 20  2  0
 22 21  1  0
 23 22  2  0
 24 23  1  0
 25 20  1  0
 25 24  2  0
 26 19  1  0
 27 26  2  0
 28 26  1  0
 29 28  1  0
 30 29  1  0
 31 30  1  0
 32 31  2  0
 33 32  1  0
 34 33  1  0
 35 33  2  0
 36 35  1  0
 37 36  2  0
 37 31  1  0
M  END
$$$$

     RDKit          3D

 35 38  0  0  0  0  0  0  0  0999 V2000
  -10.6170    1.7620  -24.7360 O   0  0  0  0  0  0  0  0  0  0  0  0
  -10.2540    0.6670  -24.3520 C   0  0  0  0  0  0  0  0  0  0  0  0
   -8.9410    0.2600  -24.4500 N   0  0  0  0  0  0  0  0  0  0  0  0
   -8.0210    1.0090  -25.2850 C   0  0  0  0  0  0  0  0  0  0  0  0
   -7.2940    2.1690  -24.6250 C   0  0  0  0  0  0  0  0  0  0  0  0
   -6.4620    2.8150  -25.2560 O   0  0  0  0  0  0  0  0  0  0  0  0
   -7.5970    2.4390  -23.3610 N   0  0  0  0  0  0  0  0  0  0  0  0
   -6.9130    3.4680  -22.6000 C   0  0  0  0  0  0  0  0  0  0  0  0
  -11.1700   -0.2410  -23.6430 C   0  0  0  0  0  0  0  0  0  0  0  0
  -12.5300    0.0700  -23.5820 C   0  0  0  0  0  0  0  0  0  0  0  0
  -13.4080   -0.7600  -22.9120 C   0  0  0  0  0  0  0  0  0  0  0  0
  -12.9250   -1.8980  -22.3050 C   0  0  0  0  0  0  0  0  0  0  0  0
  -14.0230   -2.9310  -21.4350 Cl  0  0  0  0  0  0  0  0  0  0  0  0
  -11.5820   -2.2220  -22.3370 C   0  0  0  0  0  0  0  0  0  0  0  0
  -10.6840   -1.3770  -22.9860 C   0  0  0  0  0  0  0  0  0  0  0  0
   -9.1970   -1.6460  -22.9170 C   0  0  1  0  0  0  0  0  0  0  0  0
   -8.5200   -1.1180  -24.1800 C   0  0  0  0  0  0  0  0  0  0  0  0
   -8.6000   -0.8990  -21.7210 C   0  0  0  0  0  0  0  0  0  0  0  0
   -9.0360    0.1880  -21.3480 O   0  0  0  0  0  0  0  0  0  0  0  0
   -7.5210   -1.4910  -21.1690 N   0  0  0  0  0  0  0  0  0  0  0  0
   -6.7030   -0.9810  -20.1420 C   0  0  0  0  0  0  0  0  0  0  0  0
   -5.5420   -0.2330  -20.5090 C   0  0  0  0  0  0  0  0  0  0  0  0
   -4.8210    0.4230  -19.4730 C   0  0  0  0  0  0  0  0  0  0  0  0
   -5.2770    0.2600  -18.1430 C   0  0  0  0  0  0  0  0  0  0  0  0
   -6.3410   -0.4590  -17.8020 N   0  0  0  0  0  0  0  0  0  0  0  0
   -7.0250   -1.0560  -18.7870 C   0  0  0  0  0  0  0  0  0  0  0  0
   -5.0770   -0.1050  -21.8430 C   0  0  0  0  0  0  0  0  0  0  0  0
   -3.9670    0.6550  -22.1390 C   0  0  0  0  0  0  0  0  0  0  0  0
   -3.2860    1.3120  -21.1130 C   0  0  0  0  0  0  0  0  0  0  0  0
   -3.6910    1.2060  -19.8150 C   0  0  0  0  0  0  0  0  0  0  0  0
   -3.5440    0.7230  -23.5050 N   0  0  0  0  0  0  0  0  0  0  0  0
   -2.3020    1.5620  -24.1470 S   0  0  1  0  0  0  0  0  0  0  0  0
   -1.1350    1.3050  -23.3610 O   0  0  0  0  0  0  0  0  0  0  0  0
   -2.2820    1.2250  -25.5370 O   0  0  0  0  0  0  0  0  0  0  0  0
   -2.7140    3.2580  -23.9980 C   0  0  0  0  0  0  0  0  0  0  0  0
  2  1  2  0
  3  2  1  0
  4  3  1  0
  5  4  1  0
  6  5  2  0
  7  5  1  0
  8  7  1  0
  9  2  1  0
 10  9  2  0
 11 10  1  0
 12 11  2  0
 13 12  1  0
 14 12  1  0
 15 14  2  0
 15  9  1  0
 16 15  1  0
 17 16  1  0
 17  3  1  0
 16 18  1  1
 19 18  2  0
 20 18  1  0
 21 20  1  0
 22 21  2  0
 23 22  1  0
 24 23  2  0
 25 24  1  0
 26 25  2  0
 26 21  1  0
 27 22  1  0
 28 27  2  0
 29 28  1  0
 30 29  2  0
 30 23  1  0
 31 28  1  0
 32 31  1  0
 33 32  2  0
 34 32  2  0
 32 35  1  6
M  END
$$$$

     RDKit          3D

 25 26  0  0  0  0  0  0  0  0999 V2000
   -6.8990   -2.8090  -21.7070 N   0  0  0  0  0  0  0  0  0  0  0  0
   -7.7290   -1.7820  -21.0240 C   0  0  1  0  0  0  0  0  0  0  0  0
   -6.8130   -1.1190  -20.0110 C   0  0  0  0  0  0  0  0  0  0  0  0
   -5.6560   -0.4750  -20.4120 C   0  0  0  0  0  0  0  0  0  0  0  0
   -4.8560    0.1550  -19.4810 C   0  0  0  0  0  0  0  0  0  0  0  0
   -5.2490    0.1290  -18.1640 C   0  0  0  0  0  0  0  0  0  0  0  0
   -6.3660   -0.4640  -17.7440 N   0  0  0  0  0  0  0  0  0  0  0  0
   -7.1160   -1.0780  -18.6610 C   0  0  0  0  0  0  0  0  0  0  0  0
   -8.4420   -0.7400  -21.9040 C   0  0  0  0  0  0  0  0  0  0  0  0
   -9.3220   -0.0230  -21.4460 O   0  0  0  0  0  0  0  0  0  0  0  0
   -7.9780   -0.6590  -23.1580 N   0  0  0  0  0  0  0  0  0  0  0  0
   -8.5640    0.1590  -24.2430 C   0  0  1  0  0  0  0  0  0  0  0  0
   -7.7320   -0.0510  -25.5000 C   0  0  0  0  0  0  0  0  0  0  0  0
   -9.9990   -0.2940  -24.4780 C   0  0  0  0  0  0  0  0  0  0  0  0
   -8.5260    1.6240  -23.8240 C   0  0  0  0  0  0  0  0  0  0  0  0
   -7.4710   -3.8210  -22.5450 C   0  0  0  0  0  0  0  0  0  0  0  0
   -6.6560   -4.7600  -23.1670 C   0  0  0  0  0  0  0  0  0  0  0  0
   -7.1960   -5.6720  -24.0590 C   0  0  0  0  0  0  0  0  0  0  0  0
   -8.5520   -5.6580  -24.3670 C   0  0  0  0  0  0  0  0  0  0  0  0
   -9.3620   -4.7380  -23.7170 C   0  0  0  0  0  0  0  0  0  0  0  0
   -8.8380   -3.8370  -22.8080 C   0  0  0  0  0  0  0  0  0  0  0  0
   -9.1160   -6.5650  -25.4400 C   0  0  0  0  0  0  0  0  0  0  0  0
   -8.6940   -6.0470  -26.8270 C   0  0  0  0  0  0  0  0  0  0  0  0
   -7.4440   -6.6480  -27.2990 C   0  0  0  0  0  0  0  0  0  0  0  0
   -6.4810   -7.1540  -27.6500 N   0  0  0  0  0  0  0  0  0  0  0  0
  2  1  1  6
  3  2  1  0
  4  3  2  0
  5  4  1  0
  6  5  2  0
  7  6  1  0
  8  7  2  0
  8  3  1  0
  9  2  1  0
 10  9  2  0
 11  9  1  0
 12 11  1  0
 12 13  1  6
 14 12  1  0
 15 12  1  0
 16  1  1  0
 17 16  2  0
 18 17  1  0
 19 18  2  0
 20 19  1  0
 21 20  2  0
 21 16  1  0
 22 19  1  0
 23 22  1  0
 24 23  1  0
 25 24  3  0
M  END
$$$$

     RDKit          3D

 22 24  0  0  0  0  0  0  0  0999 V2000
   -9.2470   -0.2470  -21.2170 O   0  0  0  0  0  0  0  0  0  0  0  0
   -8.6060   -1.2140  -21.6160 C   0  0  0  0  0  0  0  0  0  0  0  0
   -7.2870   -1.3740  -21.3950 N   0  0  0  0  0  0  0  0  0  0  0  0
   -6.5310   -1.0260  -20.2520 C   0  0  0  0  0  0  0  0  0  0  0  0
   -7.0940   -0.9210  -18.9780 C   0  0  0  0  0  0  0  0  0  0  0  0
   -6.4700   -0.3820  -17.9240 N   0  0  0  0  0  0  0  0  0  0  0  0
   -5.2350    0.0840  -18.1230 C   0  0  0  0  0  0  0  0  0  0  0  0
   -4.5880    0.0340  -19.3410 C   0  0  0  0  0  0  0  0  0  0  0  0
   -5.2280   -0.5320  -20.4410 C   0  0  0  0  0  0  0  0  0  0  0  0
   -4.5620   -0.5390  -21.7910 C   0  0  0  0  0  0  0  0  0  0  0  0
   -9.2530   -2.2680  -22.4960 C   0  0  0  0  0  0  0  0  0  0  0  0
   -8.4140   -2.6970  -23.5980 N   0  0  0  0  0  0  0  0  0  0  0  0
   -8.5960   -3.8580  -24.2980 C   0  0  0  0  0  0  0  0  0  0  0  0
   -7.6420   -4.2510  -25.2870 C   0  0  0  0  0  0  0  0  0  0  0  0
   -6.4610   -3.5180  -25.5730 C   0  0  0  0  0  0  0  0  0  0  0  0
   -5.5760   -3.9600  -26.5130 C   0  0  0  0  0  0  0  0  0  0  0  0
   -5.8150   -5.1350  -27.2120 C   0  0  0  0  0  0  0  0  0  0  0  0
   -6.9400   -5.8720  -26.9730 C   0  0  0  0  0  0  0  0  0  0  0  0
   -7.8770   -5.4520  -26.0010 C   0  0  0  0  0  0  0  0  0  0  0  0
   -8.9680   -6.2470  -25.7660 N   0  0  0  0  0  0  0  0  0  0  0  0
   -9.8200   -5.8390  -24.8400 C   0  0  0  0  0  0  0  0  0  0  0  0
   -9.6860   -4.6790  -24.0960 C   0  0  0  0  0  0  0  0  0  0  0  0
  2  1  2  0
  3  2  1  0
  4  3  1  0
  5  4  2  0
  6  5  1  0
  7  6  2  0
  8  7  1  0
  9  4  1  0
  9  8  2  0
 10  9  1  0
 11  2  1  0
 12 11  1  0
 13 12  1  0
 14 13  1  0
 15 14  2  0
 16 15  1  0
 17 16  2  0
 18 17  1  0
 19 18  2  0
 19 14  1  0
 20 19  1  0
 21 20  2  0
 22 21  1  0
 22 13  2  0
M  CHG  1  20   1
M  END
$$$$

     RDKit          3D

 20 21  0  0  0  0  0  0  0  0999 V2000
   -5.0820   -6.2420  -24.5770 N   0  0  0  0  0  0  0  0  0  0  0  0
   -1.8430   -5.1310  -25.8450 C   0  0  0  0  0  0  0  0  0  0  0  0
   -3.7410   -7.3400  -26.3210 O   0  0  0  0  0  0  0  0  0  0  0  0
   -0.8780   -4.1520  -25.8110 C   0  0  0  0  0  0  0  0  0  0  0  0
   -6.1950   -5.5180  -20.7090 C   0  0  0  0  0  0  0  0  0  0  0  0
   -7.3770   -4.6050  -20.4740 C   0  0  0  0  0  0  0  0  0  0  0  0
   -1.2710   -2.8360  -25.9560 C   0  0  0  0  0  0  0  0  0  0  0  0
   -2.5960   -2.4910  -26.1360 C   0  0  0  0  0  0  0  0  0  0  0  0
   -3.5420   -3.4890  -26.1650 C   0  0  0  0  0  0  0  0  0  0  0  0
   -3.1890   -4.8260  -26.0170 C   0  0  0  0  0  0  0  0  0  0  0  0
   -4.1570   -6.3350  -23.4360 C   0  0  0  0  0  0  0  0  0  0  0  0
   -4.9010   -6.9220  -22.2660 C   0  0  0  0  0  0  0  0  0  0  0  0
   -6.9720   -5.9610  -23.0740 C   0  0  0  0  0  0  0  0  0  0  0  0
   -6.2480   -5.3960  -24.2680 C   0  0  0  0  0  0  0  0  0  0  0  0
   -1.4500   -6.4180  -25.7030 F   0  0  0  0  0  0  0  0  0  0  0  0
   -4.8390   -3.1440  -26.3370 F   0  0  0  0  0  0  0  0  0  0  0  0
   -6.0570   -6.0850  -21.9340 N   0  0  0  0  0  0  0  0  0  0  0  0
   -5.4640   -5.6810  -26.9490 O   0  0  0  0  0  0  0  0  0  0  0  0
   -5.3850   -5.7050  -19.8120 O   0  0  0  0  0  0  0  0  0  0  0  0
   -4.4150   -6.1040  -26.0700 S   0  0  2  0  0  0  0  0  0  0  0  0
  4  2  2  0
  6  5  1  0
  7  4  1  0
  8  7  2  0
  9  8  1  0
 10  9  2  0
 10  2  1  0
 11  1  1  0
 12 11  1  0
 14 13  1  0
 14  1  1  0
 15  2  1  0
 16  9  1  0
 17 13  1  0
 17  5  1  0
 17 12  1  0
 19  5  2  0
 20 18  2  0
 20  3  2  0
 20  1  1  1
 20 10  1  0
M  END
$$$$

     RDKit          3D

 28 31  0  0  0  0  0  0  0  0999 V2000
   -8.7600    0.4450  -21.4380 O   0  0  0  0  0  0  0  0  0  0  0  0
   -8.6310   -0.6320  -21.9960 C   0  0  0  0  0  0  0  0  0  0  0  0
   -7.9440   -1.8040  -21.2920 C   0  0  0  0  0  0  0  0  0  0  0  0
   -7.0400   -1.3520  -20.2560 N   0  0  0  0  0  0  0  0  0  0  0  0
   -5.9240   -0.5750  -20.3460 C   0  0  0  0  0  0  0  0  0  0  0  0
   -5.1100   -0.1870  -21.3990 C   0  0  0  0  0  0  0  0  0  0  0  0
   -4.0080    0.6060  -21.1030 C   0  0  0  0  0  0  0  0  0  0  0  0
   -3.7410    1.0020  -19.7900 C   0  0  0  0  0  0  0  0  0  0  0  0
   -4.5760    0.6200  -18.7450 C   0  0  0  0  0  0  0  0  0  0  0  0
   -5.6760   -0.1820  -19.0330 C   0  0  0  0  0  0  0  0  0  0  0  0
   -6.6460   -0.7230  -18.2210 N   0  0  0  0  0  0  0  0  0  0  0  0
   -7.4590   -1.4200  -18.9660 N   0  0  0  0  0  0  0  0  0  0  0  0
   -9.0890   -0.8610  -23.2600 N   0  0  0  0  0  0  0  0  0  0  0  0
   -9.6760    0.2540  -23.9980 C   0  0  0  0  0  0  0  0  0  0  0  0
  -11.1200    0.4340  -23.6840 C   0  0  0  0  0  0  0  0  0  0  0  0
  -11.6230    1.6260  -23.3100 N   0  0  0  0  0  0  0  0  0  0  0  0
  -12.9670    1.5440  -23.0850 N   0  0  0  0  0  0  0  0  0  0  0  0
  -13.2820    0.2760  -23.3130 C   0  0  0  0  0  0  0  0  0  0  0  0
  -12.1620   -0.4590  -23.6950 C   0  0  0  0  0  0  0  0  0  0  0  0
   -8.9810   -2.1220  -23.9160 C   0  0  0  0  0  0  0  0  0  0  0  0
   -9.8190   -3.1780  -23.5720 C   0  0  0  0  0  0  0  0  0  0  0  0
   -9.6980   -4.3990  -24.2080 C   0  0  0  0  0  0  0  0  0  0  0  0
   -8.0220   -2.3060  -24.9000 C   0  0  0  0  0  0  0  0  0  0  0  0
   -7.9110   -3.5190  -25.5530 C   0  0  0  0  0  0  0  0  0  0  0  0
   -8.7500   -4.5900  -25.2270 C   0  0  0  0  0  0  0  0  0  0  0  0
   -8.6670   -5.7880  -25.9050 N   0  0  0  0  0  0  0  0  0  0  0  0
   -7.5840   -6.0590  -26.8430 C   0  0  0  0  0  0  0  0  0  0  0  0
   -9.5400   -6.9010  -25.5780 C   0  0  0  0  0  0  0  0  0  0  0  0
  2  1  2  0
  3  2  1  0
  4  3  1  0
  5  4  1  0
  6  5  2  0
  7  6  1  0
  8  7  2  0
  9  8  1  0
 10  5  1  0
 10  9  2  0
 11 10  1  0
 12 11  2  0
 12  4  1  0
 13  2  1  0
 14 13  1  0
 15 14  1  0
 16 15  2  0
 17 16  1  0
 18 17  1  0
 19 18  2  0
 19 15  1  0
 20 13  1  0
 21 20  2  0
 22 21  1  0
 23 20  1  0
 24 23  2  0
 25 24  1  0
 25 22  2  0
 26 25  1  0
 27 26  1  0
 28 26  1  0
M  END
$$$$

     RDKit          3D

 18 20  0  0  0  0  0  0  0  0999 V2000
   -0.3240   29.3500    8.6860 C   0  0  0  0  0  0  0  0  0  0  0  0
    1.5450   30.6800    7.6870 C   0  0  0  0  0  0  0  0  0  0  0  0
    2.0700   31.9770    8.2980 C   0  0  0  0  0  0  0  0  0  0  0  0
    1.1670   33.1870    8.0470 C   0  0  0  0  0  0  0  0  0  0  0  0
   -0.1200   33.1460    8.8720 C   0  0  0  0  0  0  0  0  0  0  0  0
   -1.3140   32.5600    8.1280 C   0  0  0  0  0  0  0  0  0  0  0  0
   -0.9360   31.3270    7.3250 C   0  0  0  0  0  0  0  0  0  0  0  0
    0.6670   28.3470    9.2740 C   0  0  0  0  0  0  0  0  0  0  0  0
    1.1230   28.3880   10.5750 C   0  0  0  0  0  0  0  0  0  0  0  0
    2.0220   27.4290   11.0410 C   0  0  0  0  0  0  0  0  0  0  0  0
    2.4750   26.4000   10.1950 C   0  0  0  0  0  0  0  0  0  0  0  0
    3.5680   24.7220    9.1730 C   0  0  0  0  0  0  0  0  0  0  0  0
    2.0310   26.3540    8.9130 C   0  0  0  0  0  0  0  0  0  0  0  0
    1.1150   27.3330    8.4430 C   0  0  0  0  0  0  0  0  0  0  0  0
    0.1180   30.4840    7.8820 N   0  0  0  0  0  0  0  0  0  0  0  0
   -1.4860   29.1580    8.8550 O   0  0  0  0  0  0  0  0  0  0  0  0
    3.3690   25.3310   10.4150 O   0  0  0  0  0  0  0  0  0  0  0  0
    2.6340   25.2520    8.2690 O   0  0  0  0  0  0  0  0  0  0  0  0
  3  2  1  0
  4  3  1  0
  5  4  1  0
  6  5  1  0
  7  6  1  0
  8  1  1  0
  9  8  2  0
 10  9  1  0
 11 10  2  0
 13 11  1  0
 14 13  2  0
 14  8  1  0
 15  7  1  0
 15  2  1  0
 15  1  1  0
 16  1  2  0
 17 12  1  0
 17 11  1  0
 18 13  1  0
 18 12  1  0
M  END
$$$$

     RDKit          3D

 17 19  0  0  0  0  0  0  0  0999 V2000
   -6.4450   -0.7450  -18.0960 N   0  0  0  0  0  0  0  0  0  0  0  0
   -5.6190   -0.3590  -20.7540 C   0  0  0  0  0  0  0  0  0  0  0  0
  -13.5060   -3.0290  -24.0580 C   0  0  0  0  0  0  0  0  0  0  0  0
  -10.9920   -1.2780  -22.9880 C   0  0  1  0  0  0  0  0  0  0  0  0
   -4.8570    0.0960  -19.6830 C   0  0  0  0  0  0  0  0  0  0  0  0
   -8.7530   -0.9020  -21.9080 C   0  0  0  0  0  0  0  0  0  0  0  0
   -6.8130   -1.0460  -20.4530 C   0  0  0  0  0  0  0  0  0  0  0  0
   -7.1780   -1.2030  -19.1150 C   0  0  0  0  0  0  0  0  0  0  0  0
  -11.6860   -1.2010  -24.3500 C   0  0  0  0  0  0  0  0  0  0  0  0
  -12.2490   -3.3130  -23.2990 C   0  0  2  0  0  0  0  0  0  0  0  0
  -11.8190   -2.3140  -22.2240 C   0  0  0  0  0  0  0  0  0  0  0  0
  -12.1720   -2.6290  -24.6000 C   0  0  1  0  0  0  0  0  0  0  0  0
   -5.1940   -0.0790  -22.1740 C   0  0  0  0  0  0  0  0  0  0  0  0
   -7.6320   -1.5250  -21.5020 N   0  0  0  0  0  0  0  0  0  0  0  0
   -9.1630    0.1410  -21.4130 O   0  0  0  0  0  0  0  0  0  0  0  0
   -9.4940   -1.5890  -23.0400 C   0  0  0  0  0  0  0  0  0  0  0  0
   -5.3000   -0.1150  -18.3920 C   0  0  0  0  0  0  0  0  0  0  0  0
  5  2  1  0
  7  2  2  0
  8  7  1  0
  8  1  2  0
  9  4  1  0
 10  3  1  1
 11 10  1  0
 11  4  1  0
 12 10  1  0
 12  9  1  1
 12  3  1  0
 13  2  1  0
 14  6  1  0
 14  7  1  0
 15  6  2  0
  4 16  1  6
 16  6  1  0
 17  1  1  0
 17  5  2  0
M  END
$$$$

     RDKit          3D

 26 30  0  0  0  0  0  0  0  0999 V2000
   -9.3110    0.3880  -21.4460 O   0  0  0  0  0  0  0  0  0  0  0  0
   -8.8300   -0.6190  -21.9290 C   0  0  0  0  0  0  0  0  0  0  0  0
   -9.3050   -1.3260  -23.2030 C   0  0  2  0  0  0  0  0  0  0  0  0
   -8.6490   -0.5960  -24.4030 C   0  0  0  0  0  0  0  0  0  0  0  0
   -9.5870   -0.4700  -25.5880 C   0  0  0  0  0  0  0  0  0  0  0  0
  -10.8360    0.1370  -25.2210 O   0  0  0  0  0  0  0  0  0  0  0  0
  -10.8400   -1.3150  -23.2710 C   0  0  0  0  0  0  0  0  0  0  0  0
  -11.5030   -0.5370  -24.2280 C   0  0  0  0  0  0  0  0  0  0  0  0
  -12.8820   -0.3960  -24.2270 C   0  0  0  0  0  0  0  0  0  0  0  0
  -13.6240   -1.0460  -23.2580 C   0  0  0  0  0  0  0  0  0  0  0  0
  -11.6080   -2.0050  -22.3370 C   0  0  0  0  0  0  0  0  0  0  0  0
  -12.9820   -1.8510  -22.3400 C   0  0  0  0  0  0  0  0  0  0  0  0
  -13.9290   -2.6940  -21.1450 Cl  0  0  0  0  0  0  0  0  0  0  0  0
   -7.7410   -1.2860  -21.4480 N   0  0  0  0  0  0  0  0  0  0  0  0
   -7.5030   -2.5690  -22.1310 C   0  0  0  0  0  0  0  0  0  0  0  0
   -8.7450   -2.7490  -22.9980 C   0  0  0  0  0  0  0  0  0  0  0  0
   -6.9140   -0.8420  -20.3620 C   0  0  0  0  0  0  0  0  0  0  0  0
   -5.7550   -0.0250  -20.5640 C   0  0  0  0  0  0  0  0  0  0  0  0
   -5.2720    0.3690  -21.8420 C   0  0  0  0  0  0  0  0  0  0  0  0
   -4.1650    1.1640  -21.9630 C   0  0  0  0  0  0  0  0  0  0  0  0
   -3.4960    1.6250  -20.8320 C   0  0  0  0  0  0  0  0  0  0  0  0
   -3.9260    1.2810  -19.5810 C   0  0  0  0  0  0  0  0  0  0  0  0
   -5.0610    0.4490  -19.4120 C   0  0  0  0  0  0  0  0  0  0  0  0
   -5.5630    0.0740  -18.1380 C   0  0  0  0  0  0  0  0  0  0  0  0
   -6.6320   -0.6890  -17.9550 N   0  0  0  0  0  0  0  0  0  0  0  0
   -7.2710   -1.1280  -19.0470 C   0  0  0  0  0  0  0  0  0  0  0  0
  2  1  2  0
  3  2  1  0
  3  4  1  6
  5  4  1  0
  6  5  1  0
  7  3  1  0
  8  7  2  0
  8  6  1  0
  9  8  1  0
 10  9  2  0
 11  7  1  0
 12 11  2  0
 12 10  1  0
 13 12  1  0
 14  2  1  0
 15 14  1  0
 16 15  1  0
 16  3  1  0
 17 14  1  0
 18 17  1  0
 19 18  2  0
 20 19  1  0
 21 20  2  0
 22 21  1  0
 23 18  1  0
 23 22  2  0
 24 23  1  0
 25 24  2  0
 26 25  1  0
 26 17  2  0
M  END
$$$$

     RDKit          3D

 28 31  0  0  0  0  0  0  0  0999 V2000
  -13.8780   -2.7150  -21.1150 Cl  0  0  0  0  0  0  0  0  0  0  0  0
  -13.0010   -1.7430  -22.2650 C   0  0  0  0  0  0  0  0  0  0  0  0
  -13.7000   -0.8950  -23.1010 C   0  0  0  0  0  0  0  0  0  0  0  0
  -13.0020   -0.0750  -23.9690 C   0  0  0  0  0  0  0  0  0  0  0  0
  -11.6160   -0.1120  -23.9780 C   0  0  0  0  0  0  0  0  0  0  0  0
  -10.9970    0.7230  -24.8740 O   0  0  0  0  0  0  0  0  0  0  0  0
   -9.7240    0.2290  -25.3450 C   0  0  0  0  0  0  0  0  0  0  0  0
   -8.7670    0.0070  -24.2020 C   0  0  0  0  0  0  0  0  0  0  0  0
  -11.6210   -1.7980  -22.2770 C   0  0  0  0  0  0  0  0  0  0  0  0
  -10.9020   -0.9630  -23.1300 C   0  0  0  0  0  0  0  0  0  0  0  0
   -9.3840   -0.9510  -23.1590 C   0  0  2  0  0  0  0  0  0  0  0  0
   -8.8450   -0.6320  -21.7650 C   0  0  0  0  0  0  0  0  0  0  0  0
   -9.1950    0.3570  -21.1580 O   0  0  0  0  0  0  0  0  0  0  0  0
   -7.8880   -1.4960  -21.1960 N   0  0  0  0  0  0  0  0  0  0  0  0
   -7.8040   -2.8780  -21.4810 C   0  0  0  0  0  0  0  0  0  0  0  0
   -8.7050   -3.4420  -22.0930 O   0  0  0  0  0  0  0  0  0  0  0  0
   -6.6640   -3.6650  -20.8650 C   0  0  0  0  0  0  0  0  0  0  0  0
   -7.0520   -5.0920  -20.5360 C   0  0  0  0  0  0  0  0  0  0  0  0
   -7.0560   -0.9540  -20.1400 C   0  0  0  0  0  0  0  0  0  0  0  0
   -7.4030   -1.0820  -18.7980 C   0  0  0  0  0  0  0  0  0  0  0  0
   -6.6890   -0.5740  -17.7840 N   0  0  0  0  0  0  0  0  0  0  0  0
   -5.5880    0.1050  -18.0860 C   0  0  0  0  0  0  0  0  0  0  0  0
   -5.1270    0.3370  -19.4080 C   0  0  0  0  0  0  0  0  0  0  0  0
   -5.8810   -0.2170  -20.4810 C   0  0  0  0  0  0  0  0  0  0  0  0
   -3.9700    1.1020  -19.7020 C   0  0  0  0  0  0  0  0  0  0  0  0
   -3.5750    1.2970  -20.9960 C   0  0  0  0  0  0  0  0  0  0  0  0
   -4.3020    0.7570  -22.0470 C   0  0  0  0  0  0  0  0  0  0  0  0
   -5.4260    0.0150  -21.8070 C   0  0  0  0  0  0  0  0  0  0  0  0
  2  1  1  0
  3  2  2  0
  4  3  1  0
  5  4  2  0
  6  5  1  0
  7  6  1  0
  8  7  1  0
  9  2  1  0
 10  9  2  0
 10  5  1  0
 11 10  1  0
 11  8  1  0
 11 12  1  1
 13 12  2  0
 14 12  1  0
 15 14  1  0
 16 15  2  0
 17 15  1  0
 18 17  1  0
 19 14  1  0
 20 19  2  0
 21 20  1  0
 22 21  2  0
 23 22  1  0
 24 19  1  0
 24 23  2  0
 25 23  1  0
 26 25  2  0
 27 26  1  0
 28 24  1  0
 28 27  2  0
M  END
$$$$

     RDKit          3D

 18 19  0  0  0  0  0  0  0  0999 V2000
   -8.1770   -0.4960  -25.2420 N   0  0  0  0  0  0  0  0  0  0  0  0
   -7.4680    0.2940  -24.3350 C   0  0  0  0  0  0  0  0  0  0  0  0
   -7.9760    1.2850  -23.7860 O   0  0  0  0  0  0  0  0  0  0  0  0
   -9.5630   -0.2040  -25.5940 C   0  0  0  0  0  0  0  0  0  0  0  0
   -3.7710   -0.7220  -24.9760 C   0  0  0  0  0  0  0  0  0  0  0  0
   -3.9990   -0.0100  -22.7140 C   0  0  0  0  0  0  0  0  0  0  0  0
   -5.4060    0.5580  -22.9890 C   0  0  0  0  0  0  0  0  0  0  0  0
  -10.4830   -0.8420  -24.5910 C   0  0  0  0  0  0  0  0  0  0  0  0
  -11.6710   -0.2090  -24.2340 C   0  0  0  0  0  0  0  0  0  0  0  0
  -12.5190   -0.8010  -23.3010 C   0  0  0  0  0  0  0  0  0  0  0  0
  -12.1600   -2.0220  -22.7200 C   0  0  0  0  0  0  0  0  0  0  0  0
  -12.9990   -2.6070  -21.7460 C   0  0  0  0  0  0  0  0  0  0  0  0
  -10.9760   -2.6630  -23.0790 C   0  0  0  0  0  0  0  0  0  0  0  0
  -10.1400   -2.0720  -24.0160 C   0  0  0  0  0  0  0  0  0  0  0  0
   -5.2110   -0.2670  -25.3070 C   0  0  0  0  0  0  0  0  0  0  0  0
  -13.7030   -3.0540  -20.9520 N   0  0  0  0  0  0  0  0  0  0  0  0
   -6.0890   -0.1640  -24.0960 N   0  0  0  0  0  0  0  0  0  0  0  0
   -3.2350    0.0320  -23.9030 O   0  0  0  0  0  0  0  0  0  0  0  0
  2  1  1  0
  3  2  2  0
  4  1  1  0
  7  6  1  0
  8  4  1  0
  9  8  2  0
 10  9  1  0
 11 10  2  0
 12 11  1  0
 13 11  1  0
 14 13  2  0
 14  8  1  0
 15  5  1  0
 16 12  3  0
 17  2  1  0
 17 15  1  0
 17  7  1  0
 18  6  1  0
 18  5  1  0
M  END
$$$$

     RDKit          3D

 24 27  0  0  0  0  0  0  0  0999 V2000
   -9.3300    0.1020  -21.5920 O   0  0  0  0  0  0  0  0  0  0  0  0
   -8.7130   -0.8820  -21.9950 C   0  0  0  0  0  0  0  0  0  0  0  0
   -9.1090   -1.6360  -23.2660 C   0  0  2  0  0  0  0  0  0  0  0  0
   -8.4400   -0.9550  -24.4680 C   0  0  0  0  0  0  0  0  0  0  0  0
   -9.2460    0.2430  -24.9000 C   0  0  0  0  0  0  0  0  0  0  0  0
  -10.5820   -0.1460  -25.2810 O   0  0  0  0  0  0  0  0  0  0  0  0
  -10.6240   -1.6100  -23.3420 C   0  0  0  0  0  0  0  0  0  0  0  0
  -11.2640   -0.8310  -24.3080 C   0  0  0  0  0  0  0  0  0  0  0  0
  -12.6430   -0.7000  -24.3330 C   0  0  0  0  0  0  0  0  0  0  0  0
  -13.4070   -1.3500  -23.3810 C   0  0  0  0  0  0  0  0  0  0  0  0
  -11.4150   -2.2960  -22.4170 C   0  0  0  0  0  0  0  0  0  0  0  0
  -12.7860   -2.1500  -22.4510 C   0  0  0  0  0  0  0  0  0  0  0  0
  -13.7550   -3.0180  -21.2920 Cl  0  0  0  0  0  0  0  0  0  0  0  0
   -7.6710   -1.3980  -21.3390 N   0  0  0  0  0  0  0  0  0  0  0  0
   -6.6730   -0.9520  -20.4650 C   0  0  0  0  0  0  0  0  0  0  0  0
   -5.5610   -0.1270  -20.6920 C   0  0  0  0  0  0  0  0  0  0  0  0
   -5.1140    0.1700  -22.1020 C   0  0  0  0  0  0  0  0  0  0  0  0
   -4.1140    1.2400  -22.1810 N   0  0  0  0  0  0  0  0  0  0  0  0
   -3.0640    1.0840  -21.1590 C   0  0  0  0  0  0  0  0  0  0  0  0
   -3.6300    1.2300  -19.7650 C   0  0  0  0  0  0  0  0  0  0  0  0
   -4.8670    0.3830  -19.5850 C   0  0  0  0  0  0  0  0  0  0  0  0
   -5.3520    0.0890  -18.3260 C   0  0  0  0  0  0  0  0  0  0  0  0
   -6.4330   -0.6600  -18.0910 N   0  0  0  0  0  0  0  0  0  0  0  0
   -7.0600   -1.1780  -19.1460 C   0  0  0  0  0  0  0  0  0  0  0  0
  2  1  2  0
  3  2  1  1
  4  3  1  0
  5  4  1  0
  6  5  1  0
  7  3  1  0
  8  7  2  0
  8  6  1  0
  9  8  1  0
 10  9  2  0
 11  7  1  0
 12 11  2  0
 12 10  1  0
 13 12  1  0
 14  2  1  0
 15 14  1  0
 16 15  1  0
 17 16  1  0
 18 17  1  0
 19 18  1  0
 20 19  1  0
 21 16  2  0
 21 20  1  0
 22 21  1  0
 23 22  2  0
 24 23  1  0
 24 15  2  0
M  CHG  1  18   1
M  END
$$$$

     RDKit          3D

 15 16  0  0  0  0  0  0  0  0999 V2000
   -6.8570  -24.1060    1.3310 C   0  0  0  0  0  0  0  0  0  0  0  0
   -6.5770  -22.6270    0.9990 C   0  0  1  0  0  0  0  0  0  0  0  0
   -7.2070  -21.7270    2.0590 C   0  0  0  0  0  0  0  0  0  0  0  0
   -7.2870  -19.3910    3.0520 C   0  0  0  0  0  0  0  0  0  0  0  0
   -8.4040  -19.7700    4.0250 C   0  0  0  0  0  0  0  0  0  0  0  0
   -9.6850  -17.6680    3.9370 C   0  0  0  0  0  0  0  0  0  0  0  0
  -10.0130  -16.6560    4.8170 C   0  0  0  0  0  0  0  0  0  0  0  0
   -9.4390  -16.9890    6.0340 C   0  0  0  0  0  0  0  0  0  0  0  0
   -5.6910  -20.0370    1.1900 C   0  0  0  0  0  0  0  0  0  0  0  0
   -4.6960  -21.1510    0.8660 C   0  0  0  0  0  0  0  0  0  0  0  0
   -6.7410  -20.3620    2.1240 N   0  0  0  0  0  0  0  0  0  0  0  0
   -8.9590  -18.5560    4.5940 N   0  0  0  0  0  0  0  0  0  0  0  0
   -8.8050  -18.1390    5.8840 N   0  0  0  0  0  0  0  0  0  0  0  0
   -6.8630  -18.2810    3.0670 O   0  0  0  0  0  0  0  0  0  0  0  0
   -5.1820  -22.4760    0.8920 O   0  0  0  0  0  0  0  0  0  0  0  0
  2  1  1  1
  3  2  1  0
  5  4  1  0
  7  6  2  0
  8  7  1  0
 10  9  2  0
 11  9  1  0
 11  4  1  0
 11  3  1  0
 12  6  1  0
 12  5  1  0
 13 12  1  0
 13  8  2  0
 14  4  2  0
 15  2  1  0
 15 10  1  0
M  END
$$$$

     RDKit          3D

 24 27  0  0  0  0  0  0  0  0999 V2000
   -9.1990    0.3710  -21.3600 O   0  0  0  0  0  0  0  0  0  0  0  0
   -8.7660   -0.7220  -21.7080 C   0  0  0  0  0  0  0  0  0  0  0  0
   -9.2900   -1.4470  -22.9470 C   0  0  2  0  0  0  0  0  0  0  0  0
   -8.5460   -0.7900  -24.1480 C   0  0  0  0  0  0  0  0  0  0  0  0
   -9.4970   -0.2890  -25.2080 C   0  0  0  0  0  0  0  0  0  0  0  0
  -10.6290    0.4070  -24.6740 O   0  0  0  0  0  0  0  0  0  0  0  0
  -10.8010   -1.2970  -22.9680 C   0  0  0  0  0  0  0  0  0  0  0  0
  -11.3810   -0.3660  -23.8280 C   0  0  0  0  0  0  0  0  0  0  0  0
  -12.7540   -0.1730  -23.8740 C   0  0  0  0  0  0  0  0  0  0  0  0
  -13.5730   -0.9160  -23.0440 C   0  0  0  0  0  0  0  0  0  0  0  0
  -11.6420   -2.0620  -22.1600 C   0  0  0  0  0  0  0  0  0  0  0  0
  -13.0070   -1.8540  -22.2030 C   0  0  0  0  0  0  0  0  0  0  0  0
  -14.0420   -2.8110  -21.1820 Cl  0  0  0  0  0  0  0  0  0  0  0  0
   -7.8020   -1.3710  -21.0320 N   0  0  0  0  0  0  0  0  0  0  0  0
   -6.7570   -0.8830  -20.2160 C   0  0  0  0  0  0  0  0  0  0  0  0
   -5.8280    0.1380  -20.5090 C   0  0  0  0  0  0  0  0  0  0  0  0
   -5.7200    0.6910  -21.9090 C   0  0  0  0  0  0  0  0  0  0  0  0
   -4.4700    1.4200  -22.1440 N   0  0  0  0  0  0  0  0  0  0  0  0
   -4.1640    2.3740  -21.0490 C   0  0  0  0  0  0  0  0  0  0  0  0
   -3.9440    1.6520  -19.7390 C   0  0  0  0  0  0  0  0  0  0  0  0
   -5.0660    0.6790  -19.4620 C   0  0  0  0  0  0  0  0  0  0  0  0
   -5.3470    0.2660  -18.1770 C   0  0  0  0  0  0  0  0  0  0  0  0
   -6.2640   -0.6520  -17.8660 N   0  0  0  0  0  0  0  0  0  0  0  0
   -6.9170   -1.2360  -18.8780 C   0  0  0  0  0  0  0  0  0  0  0  0
  2  1  2  0
  3  2  1  1
  4  3  1  0
  5  4  1  0
  6  5  1  0
  7  3  1  0
  8  7  2  0
  8  6  1  0
  9  8  1  0
 10  9  2  0
 11  7  1  0
 12 11  2  0
 12 10  1  0
 13 12  1  0
 14  2  1  0
 15 14  1  0
 16 15  1  0
 17 16  1  0
 18 17  1  0
 19 18  1  0
 20 19  1  0
 21 16  2  0
 21 20  1  0
 22 21  1  0
 23 22  2  0
 24 23  1  0
 24 15  2  0
M  CHG  1  18   1
M  END
$$$$

     RDKit          3D

 20 22  0  0  0  0  0  0  0  0999 V2000
   -8.8210   -0.0890  -21.5300 O   0  0  0  0  0  0  0  0  0  0  0  0
   -8.4610   -1.2110  -21.8990 C   0  0  0  0  0  0  0  0  0  0  0  0
   -9.1180   -1.9150  -23.0740 C   0  0  0  0  0  0  0  0  0  0  0  0
  -10.5970   -1.6290  -23.2340 C   0  0  0  0  0  0  0  0  0  0  0  0
  -11.0380   -0.6410  -24.1060 C   0  0  0  0  0  0  0  0  0  0  0  0
  -12.3810   -0.3010  -24.1750 C   0  0  0  0  0  0  0  0  0  0  0  0
  -13.3080   -0.9400  -23.3670 C   0  0  0  0  0  0  0  0  0  0  0  0
  -11.5340   -2.3050  -22.4570 C   0  0  0  0  0  0  0  0  0  0  0  0
  -12.8680   -1.9420  -22.5220 C   0  0  0  0  0  0  0  0  0  0  0  0
  -14.0140   -2.7320  -21.4720 Cl  0  0  0  0  0  0  0  0  0  0  0  0
   -7.4470   -1.8910  -21.3270 N   0  0  0  0  0  0  0  0  0  0  0  0
   -6.7990   -1.3460  -20.2160 N   0  0  0  0  0  0  0  0  0  0  0  0
   -5.6900   -0.4920  -20.2420 C   0  0  0  0  0  0  0  0  0  0  0  0
   -5.4960   -0.1390  -18.9030 C   0  0  0  0  0  0  0  0  0  0  0  0
   -6.4280   -0.7910  -18.0860 N   0  0  0  0  0  0  0  0  0  0  0  0
   -7.1670   -1.4850  -18.9170 C   0  0  0  0  0  0  0  0  0  0  0  0
   -4.9080    0.0280  -21.2650 C   0  0  0  0  0  0  0  0  0  0  0  0
   -3.9180    0.9410  -20.9190 C   0  0  0  0  0  0  0  0  0  0  0  0
   -3.7280    1.3250  -19.5890 C   0  0  0  0  0  0  0  0  0  0  0  0
   -4.5060    0.7860  -18.5710 C   0  0  0  0  0  0  0  0  0  0  0  0
  2  1  2  0
  3  2  1  0
  4  3  1  0
  5  4  2  0
  6  5  1  0
  7  6  2  0
  8  4  1  0
  9  8  2  0
  9  7  1  0
 10  9  1  0
 11  2  1  0
 12 11  1  0
 13 12  1  0
 14 13  2  0
 15 14  1  0
 16 15  2  0
 16 12  1  0
 17 13  1  0
 18 17  2  0
 19 18  1  0
 20 14  1  0
 20 19  2  0
M  END
$$$$

     RDKit          3D

 24 27  0  0  0  0  0  0  0  0999 V2000
   -8.9930   -0.1370  -21.2580 O   0  0  0  0  0  0  0  0  0  0  0  0
   -8.3890   -1.1390  -21.6570 C   0  0  0  0  0  0  0  0  0  0  0  0
   -8.8710   -1.9600  -22.8550 C   0  0  2  0  0  0  0  0  0  0  0  0
   -8.1140   -1.5470  -24.1240 C   0  0  0  0  0  0  0  0  0  0  0  0
   -8.3700   -0.1360  -24.4320 N   0  0  0  0  0  0  0  0  0  0  0  0
   -9.7790    0.1190  -24.7420 C   0  0  0  0  0  0  0  0  0  0  0  0
  -10.3450   -1.6610  -23.0190 C   0  0  0  0  0  0  0  0  0  0  0  0
  -10.7660   -0.6490  -23.8960 C   0  0  0  0  0  0  0  0  0  0  0  0
  -12.1300   -0.3860  -24.0220 C   0  0  0  0  0  0  0  0  0  0  0  0
  -13.0640   -1.1050  -23.2960 C   0  0  0  0  0  0  0  0  0  0  0  0
  -11.2910   -2.3870  -22.2970 C   0  0  0  0  0  0  0  0  0  0  0  0
  -12.6290   -2.0830  -22.4300 C   0  0  0  0  0  0  0  0  0  0  0  0
  -13.7810   -2.8800  -21.3950 Cl  0  0  0  0  0  0  0  0  0  0  0  0
   -7.2420   -1.5900  -21.0910 N   0  0  0  0  0  0  0  0  0  0  0  0
   -6.5480   -1.0330  -19.9980 C   0  0  0  0  0  0  0  0  0  0  0  0
   -5.4580   -0.1430  -20.2570 C   0  0  0  0  0  0  0  0  0  0  0  0
   -4.9510    0.1290  -21.5550 C   0  0  0  0  0  0  0  0  0  0  0  0
   -3.9160    1.0020  -21.7360 C   0  0  0  0  0  0  0  0  0  0  0  0
   -3.3350    1.6450  -20.6500 C   0  0  0  0  0  0  0  0  0  0  0  0
   -3.7860    1.4150  -19.3810 C   0  0  0  0  0  0  0  0  0  0  0  0
   -4.8560    0.5150  -19.1490 C   0  0  0  0  0  0  0  0  0  0  0  0
   -5.3640    0.2330  -17.8580 C   0  0  0  0  0  0  0  0  0  0  0  0
   -6.3670   -0.6020  -17.6160 N   0  0  0  0  0  0  0  0  0  0  0  0
   -6.9330   -1.2110  -18.6690 C   0  0  0  0  0  0  0  0  0  0  0  0
  2  1  2  0
  3  2  1  1
  4  3  1  0
  5  4  1  0
  6  5  1  0
  7  3  1  0
  8  7  2  0
  8  6  1  0
  9  8  1  0
 10  9  2  0
 11  7  1  0
 12 11  2  0
 12 10  1  0
 13 12  1  0
 14  2  1  0
 15 14  1  0
 16 15  1  0
 17 16  2  0
 18 17  1  0
 19 18  2  0
 20 19  1  0
 21 16  1  0
 21 20  2  0
 22 21  1  0
 23 22  2  0
 24 23  1  0
 24 15  2  0
M  CHG  1   5   1
M  END
$$$$

     RDKit          3D

 23 25  0  0  0  0  0  0  0  0999 V2000
  -14.5300   -2.6540  -20.7560 Cl  0  0  0  0  0  0  0  0  0  0  0  0
  -13.6020   -1.7790  -21.9330 C   0  0  0  0  0  0  0  0  0  0  0  0
  -14.1390   -0.6480  -22.5190 C   0  0  0  0  0  0  0  0  0  0  0  0
  -13.3680    0.0550  -23.4290 C   0  0  0  0  0  0  0  0  0  0  0  0
  -12.0850   -0.3750  -23.7390 C   0  0  0  0  0  0  0  0  0  0  0  0
  -12.3250   -2.2160  -22.2270 C   0  0  0  0  0  0  0  0  0  0  0  0
  -11.5500   -1.5070  -23.1300 C   0  0  0  0  0  0  0  0  0  0  0  0
  -10.1350   -2.0090  -23.3670 C   0  0  1  0  0  0  0  0  0  0  0  0
   -9.9870   -2.5760  -24.7730 C   0  0  0  0  0  0  0  0  0  0  0  0
   -9.1810   -0.9000  -23.1440 N   0  0  0  0  0  0  0  0  0  0  0  0
   -8.9480    0.0640  -24.2220 C   0  0  0  0  0  0  0  0  0  0  0  0
   -8.6720   -0.6900  -21.9160 C   0  0  0  0  0  0  0  0  0  0  0  0
   -8.8220    0.3770  -21.3440 O   0  0  0  0  0  0  0  0  0  0  0  0
   -7.8440   -1.7980  -21.2600 C   0  0  0  0  0  0  0  0  0  0  0  0
   -7.0600   -1.2810  -20.1550 N   0  0  0  0  0  0  0  0  0  0  0  0
   -5.9100   -0.5480  -20.1790 C   0  0  0  0  0  0  0  0  0  0  0  0
   -5.6810   -0.2270  -18.8440 C   0  0  0  0  0  0  0  0  0  0  0  0
   -6.6740   -0.7960  -18.0780 N   0  0  0  0  0  0  0  0  0  0  0  0
   -7.4930   -1.4270  -18.8770 N   0  0  0  0  0  0  0  0  0  0  0  0
   -5.0810   -0.0940  -21.1930 C   0  0  0  0  0  0  0  0  0  0  0  0
   -4.0180    0.7280  -20.8430 C   0  0  0  0  0  0  0  0  0  0  0  0
   -3.7880    1.0740  -19.5120 C   0  0  0  0  0  0  0  0  0  0  0  0
   -4.6060    0.5890  -18.5000 C   0  0  0  0  0  0  0  0  0  0  0  0
  2  1  1  0
  3  2  2  0
  4  3  1  0
  5  4  2  0
  6  2  1  0
  7  6  2  0
  7  5  1  0
  8  7  1  0
  8  9  1  6
 10  8  1  0
 11 10  1  0
 12 10  1  0
 13 12  2  0
 14 12  1  0
 15 14  1  0
 16 15  1  0
 17 16  2  0
 18 17  1  0
 19 18  2  0
 19 15  1  0
 20 16  1  0
 21 20  2  0
 22 21  1  0
 23 17  1  0
 23 22  2  0
M  END
$$$$

     RDKit          3D

 29 32  0  0  0  0  0  0  0  0999 V2000
   -8.9670   -0.0660  -21.3610 O   0  0  0  0  0  0  0  0  0  0  0  0
   -8.5740   -1.0910  -21.9000 C   0  0  0  0  0  0  0  0  0  0  0  0
   -7.5560   -1.9770  -21.2050 C   0  0  0  0  0  0  0  0  0  0  0  0
   -6.7220   -1.2230  -20.1890 C   0  0  0  0  0  0  0  0  0  0  0  0
   -5.6060   -0.4420  -20.5960 C   0  0  0  0  0  0  0  0  0  0  0  0
   -5.1960   -0.3140  -21.9490 C   0  0  0  0  0  0  0  0  0  0  0  0
   -4.1320    0.4730  -22.2900 C   0  0  0  0  0  0  0  0  0  0  0  0
   -3.4290    1.1700  -21.3200 C   0  0  0  0  0  0  0  0  0  0  0  0
   -3.7740    1.0690  -20.0020 C   0  0  0  0  0  0  0  0  0  0  0  0
   -4.8660    0.2570  -19.6050 C   0  0  0  0  0  0  0  0  0  0  0  0
   -5.2800    0.1120  -18.2610 C   0  0  0  0  0  0  0  0  0  0  0  0
   -6.3240   -0.6140  -17.8830 N   0  0  0  0  0  0  0  0  0  0  0  0
   -7.0150   -1.2510  -18.8400 C   0  0  0  0  0  0  0  0  0  0  0  0
   -9.0370   -1.4840  -23.1240 N   0  0  0  0  0  0  0  0  0  0  0  0
  -10.0780   -0.6760  -23.7500 C   0  0  0  0  0  0  0  0  0  0  0  0
  -11.4700   -1.1170  -23.3760 C   0  0  0  0  0  0  0  0  0  0  0  0
  -11.7040   -2.0370  -22.3930 C   0  0  0  0  0  0  0  0  0  0  0  0
  -13.3560   -2.4230  -22.2390 S   0  0  0  0  0  0  0  0  0  0  0  0
  -13.7770   -1.3280  -23.5040 C   0  0  0  0  0  0  0  0  0  0  0  0
  -12.6740   -0.7070  -24.0090 C   0  0  0  0  0  0  0  0  0  0  0  0
   -8.5860   -2.6590  -23.8150 C   0  0  0  0  0  0  0  0  0  0  0  0
   -7.6910   -2.5420  -24.8750 C   0  0  0  0  0  0  0  0  0  0  0  0
   -7.3890   -3.6400  -25.6630 C   0  0  0  0  0  0  0  0  0  0  0  0
   -9.1430   -3.9040  -23.5310 C   0  0  0  0  0  0  0  0  0  0  0  0
   -8.8360   -5.0070  -24.3120 C   0  0  0  0  0  0  0  0  0  0  0  0
   -7.9680   -4.8940  -25.4080 C   0  0  0  0  0  0  0  0  0  0  0  0
   -7.7270   -5.9770  -26.2400 N   0  0  0  0  0  0  0  0  0  0  0  0
   -8.7600   -6.9800  -26.4500 C   0  0  0  0  0  0  0  0  0  0  0  0
   -6.8450   -5.8540  -27.3930 C   0  0  0  0  0  0  0  0  0  0  0  0
  2  1  2  0
  3  2  1  0
  4  3  1  0
  5  4  1  0
  6  5  2  0
  7  6  1  0
  8  7  2  0
  9  8  1  0
 10  5  1  0
 10  9  2  0
 11 10  1  0
 12 11  2  0
 13 12  1  0
 13  4  2  0
 14  2  1  0
 15 14  1  0
 16 15  1  0
 17 16  2  0
 18 17  1  0
 19 18  1  0
 20 19  2  0
 20 16  1  0
 21 14  1  0
 22 21  2  0
 23 22  1  0
 24 21  1  0
 25 24  2  0
 26 25  1  0
 26 23  2  0
 27 26  1  0
 28 27  1  0
 29 27  1  0
M  END
$$$$

     RDKit          3D

 18 20  0  0  0  0  0  0  0  0999 V2000
  -13.3820   -2.8680  -21.5780 Cl  0  0  0  0  0  0  0  0  0  0  0  0
  -12.2800   -2.1700  -22.7320 C   0  0  0  0  0  0  0  0  0  0  0  0
  -12.5780   -0.9460  -23.2950 C   0  0  0  0  0  0  0  0  0  0  0  0
  -11.7260   -0.4330  -24.2600 C   0  0  0  0  0  0  0  0  0  0  0  0
  -10.6010   -1.1440  -24.6460 C   0  0  0  0  0  0  0  0  0  0  0  0
  -11.1550   -2.8830  -23.0970 C   0  0  0  0  0  0  0  0  0  0  0  0
  -10.3040   -2.3730  -24.0720 C   0  0  0  0  0  0  0  0  0  0  0  0
   -9.0880   -3.1550  -24.5100 C   0  0  0  0  0  0  0  0  0  0  0  0
   -8.3810   -3.7750  -23.3830 N   0  0  1  0  0  0  0  0  0  0  0  0
   -7.3380   -4.7490  -23.7820 C   0  0  2  0  0  0  0  0  0  0  0  0
   -7.1750   -5.6650  -22.5720 C   0  0  0  0  0  0  0  0  0  0  0  0
   -7.6860   -2.8060  -22.5190 C   0  0  0  0  0  0  0  0  0  0  0  0
   -6.3380   -3.4810  -22.2820 C   0  0  2  0  0  0  0  0  0  0  0  0
   -6.0350   -3.9450  -23.7100 C   0  0  0  0  0  0  0  0  0  0  0  0
   -6.5580   -4.7670  -21.5940 N   0  0  0  0  0  0  0  0  0  0  0  0
   -6.1960   -5.0730  -20.3320 C   0  0  0  0  0  0  0  0  0  0  0  0
   -5.7320   -6.1660  -20.0660 O   0  0  0  0  0  0  0  0  0  0  0  0
   -6.3370   -4.0050  -19.2630 C   0  0  0  0  0  0  0  0  0  0  0  0
  2  1  1  0
  3  2  2  0
  4  3  1  0
  5  4  2  0
  6  2  1  0
  7  6  2  0
  7  5  1  0
  8  7  1  0
  9  8  1  6
 10  9  1  0
 10 11  1  1
 12  9  1  0
 13 12  1  6
 14 13  1  0
 14 10  1  0
 15 11  1  0
 15 13  1  0
 16 15  1  0
 17 16  2  0
 18 16  1  0
M  CHG  1   9   1
M  END
$$$$

     RDKit          3D

 37 41  0  0  0  0  0  0  0  0999 V2000
   -9.1840    0.1680  -21.1630 O   0  0  0  0  0  0  0  0  0  0  0  0
   -8.6950   -0.8320  -21.6720 C   0  0  0  0  0  0  0  0  0  0  0  0
   -7.5070   -1.3280  -21.2460 N   0  0  0  0  0  0  0  0  0  0  0  0
   -6.7160   -0.8460  -20.1770 C   0  0  0  0  0  0  0  0  0  0  0  0
   -5.5790   -0.0290  -20.4720 C   0  0  0  0  0  0  0  0  0  0  0  0
   -5.1570    0.2940  -21.7880 C   0  0  0  0  0  0  0  0  0  0  0  0
   -4.0670    1.0920  -22.0020 C   0  0  0  0  0  0  0  0  0  0  0  0
   -3.3490    1.6120  -20.9330 C   0  0  0  0  0  0  0  0  0  0  0  0
   -3.7150    1.3310  -19.6480 C   0  0  0  0  0  0  0  0  0  0  0  0
   -4.8350    0.5060  -19.3810 C   0  0  0  0  0  0  0  0  0  0  0  0
   -5.2690    0.1940  -18.0730 C   0  0  0  0  0  0  0  0  0  0  0  0
   -6.3200   -0.5650  -17.7980 N   0  0  0  0  0  0  0  0  0  0  0  0
   -7.0070   -1.0670  -18.8330 C   0  0  0  0  0  0  0  0  0  0  0  0
   -9.4140   -1.5610  -22.8400 C   0  0  1  0  0  0  0  0  0  0  0  0
  -10.9120   -1.2470  -22.8730 C   0  0  0  0  0  0  0  0  0  0  0  0
  -11.8020   -2.0330  -22.1450 C   0  0  0  0  0  0  0  0  0  0  0  0
  -13.1280   -1.6600  -22.0580 C   0  0  0  0  0  0  0  0  0  0  0  0
  -14.1720   -2.5170  -20.9570 Cl  0  0  0  0  0  0  0  0  0  0  0  0
  -13.6210   -0.5590  -22.7260 C   0  0  0  0  0  0  0  0  0  0  0  0
  -12.7620    0.2040  -23.4960 C   0  0  0  0  0  0  0  0  0  0  0  0
  -11.4230   -0.1410  -23.5680 C   0  0  0  0  0  0  0  0  0  0  0  0
  -10.6500    0.6910  -24.3470 O   0  0  0  0  0  0  0  0  0  0  0  0
   -9.2200    0.4620  -24.3560 C   0  0  0  0  0  0  0  0  0  0  0  0
   -8.8330   -0.9880  -24.1520 C   0  0  0  0  0  0  0  0  0  0  0  0
   -9.2380   -3.1010  -22.7540 C   0  0  0  0  0  0  0  0  0  0  0  0
   -8.0270   -3.6470  -23.4770 C   0  0  0  0  0  0  0  0  0  0  0  0
   -6.9090   -3.4990  -23.0050 O   0  0  0  0  0  0  0  0  0  0  0  0
   -8.2300   -4.3360  -24.6220 N   0  0  0  0  0  0  0  0  0  0  0  0
   -7.7750   -3.8280  -25.9240 C   0  0  0  0  0  0  0  0  0  0  0  0
   -8.8390   -4.0660  -26.9960 C   0  0  0  0  0  0  0  0  0  0  0  0
   -8.7560   -5.7110  -24.6270 C   0  0  0  0  0  0  0  0  0  0  0  0
   -9.7720   -5.9050  -25.7630 C   0  0  0  0  0  0  0  0  0  0  0  0
   -9.2000   -5.4910  -27.0590 N   0  0  2  0  0  0  0  0  0  0  0  0
   -8.0570   -6.3270  -27.4660 C   0  0  0  0  0  0  0  0  0  0  0  0
   -8.0430   -6.7090  -28.9350 C   0  0  0  0  0  0  0  0  0  0  0  0
   -6.6690   -6.6280  -29.5770 C   0  0  0  0  0  0  0  0  0  0  0  0
   -6.4330   -5.3490  -30.1620 O   0  0  0  0  0  0  0  0  0  0  0  0
  2  1  2  0
  3  2  1  0
  4  3  1  0
  5  4  1  0
  6  5  2  0
  7  6  1  0
  8  7  2  0
  9  8  1  0
 10  5  1  0
 10  9  2  0
 11 10  1  0
 12 11  2  0
 13 12  1  0
 13  4  2  0
 14  2  1  0
 15 14  1  0
 16 15  2  0
 17 16  1  0
 18 17  1  0
 19 17  2  0
 20 19  1  0
 21 20  2  0
 21 15  1  0
 22 21  1  0
 23 22  1  0
 24 23  1  0
 24 14  1  0
 14 25  1  1
 26 25  1  0
 27 26  2  0
 28 26  1  0
 29 28  1  0
 30 29  1  0
 31 28  1  0
 32 31  1  0
 33 32  1  0
 33 30  1  0
 33 34  1  1
 35 34  1  0
 36 35  1  0
 37 36  1  0
M  CHG  1  33   1
M  END
$$$$

     RDKit          3D

 27 31  0  0  0  0  0  0  0  0999 V2000
   -9.0140    0.4470  -21.3150 O   0  0  0  0  0  0  0  0  0  0  0  0
   -8.5920   -0.6120  -21.7390 C   0  0  0  0  0  0  0  0  0  0  0  0
   -9.0820   -1.3510  -23.0070 C   0  0  2  0  0  0  0  0  0  0  0  0
   -8.4490   -0.6320  -24.2210 C   0  0  0  0  0  0  0  0  0  0  0  0
   -9.4660   -0.1160  -25.2230 C   0  0  0  0  0  0  0  0  0  0  0  0
  -10.6270    0.4580  -24.6020 O   0  0  0  0  0  0  0  0  0  0  0  0
  -10.6030   -1.4000  -23.0620 C   0  0  0  0  0  0  0  0  0  0  0  0
  -11.2860   -0.4530  -23.8210 C   0  0  0  0  0  0  0  0  0  0  0  0
  -12.6700   -0.4130  -23.8640 C   0  0  0  0  0  0  0  0  0  0  0  0
  -13.3920   -1.3370  -23.1310 C   0  0  0  0  0  0  0  0  0  0  0  0
  -11.3410   -2.3380  -22.3420 C   0  0  0  0  0  0  0  0  0  0  0  0
  -12.7220   -2.2670  -22.3650 C   0  0  0  0  0  0  0  0  0  0  0  0
  -13.6330   -3.2880  -21.2850 Cl  0  0  0  0  0  0  0  0  0  0  0  0
   -7.6410   -1.4380  -21.1380 N   0  0  0  0  0  0  0  0  0  0  0  0
   -7.5850   -2.6870  -21.7680 C   0  0  0  0  0  0  0  0  0  0  0  0
   -6.8460   -3.6100  -21.4520 O   0  0  0  0  0  0  0  0  0  0  0  0
   -8.4770   -2.6630  -22.7910 N   0  0  0  0  0  0  0  0  0  0  0  0
   -6.7710   -1.0140  -20.0610 C   0  0  0  0  0  0  0  0  0  0  0  0
   -5.6720   -0.1500  -20.3520 C   0  0  0  0  0  0  0  0  0  0  0  0
   -5.1690    0.0970  -21.6560 C   0  0  0  0  0  0  0  0  0  0  0  0
   -4.0980    0.9270  -21.8540 C   0  0  0  0  0  0  0  0  0  0  0  0
   -3.4890    1.5650  -20.7800 C   0  0  0  0  0  0  0  0  0  0  0  0
   -3.9390    1.3630  -19.5050 C   0  0  0  0  0  0  0  0  0  0  0  0
   -5.0310    0.4930  -19.2530 C   0  0  0  0  0  0  0  0  0  0  0  0
   -5.5210    0.2190  -17.9500 C   0  0  0  0  0  0  0  0  0  0  0  0
   -6.5420   -0.5880  -17.6900 N   0  0  0  0  0  0  0  0  0  0  0  0
   -7.1440   -1.1800  -18.7300 C   0  0  0  0  0  0  0  0  0  0  0  0
  2  1  2  0
  3  2  1  0
  3  4  1  6
  5  4  1  0
  6  5  1  0
  7  3  1  0
  8  7  2  0
  8  6  1  0
  9  8  1  0
 10  9  2  0
 11  7  1  0
 12 11  2  0
 12 10  1  0
 13 12  1  0
 14  2  1  0
 15 14  1  0
 16 15  2  0
 17  3  1  0
 17 15  1  0
 18 14  1  0
 19 18  1  0
 20 19  2  0
 21 20  1  0
 22 21  2  0
 23 22  1  0
 24 19  1  0
 24 23  2  0
 25 24  1  0
 26 25  2  0
 27 26  1  0
 27 18  2  0
M  END
$$$$

     RDKit          3D

 27 30  0  0  0  0  0  0  0  0999 V2000
   -9.0490    0.1190  -21.2570 O   0  0  0  0  0  0  0  0  0  0  0  0
   -8.5030   -0.8890  -21.6960 C   0  0  0  0  0  0  0  0  0  0  0  0
   -9.0000   -1.5980  -23.0050 C   0  0  1  0  0  0  0  0  0  0  0  0
  -10.4960   -1.5010  -23.2040 C   0  0  0  0  0  0  0  0  0  0  0  0
  -11.3720   -2.1960  -22.3750 C   0  0  0  0  0  0  0  0  0  0  0  0
  -12.7370   -2.0730  -22.5510 C   0  0  0  0  0  0  0  0  0  0  0  0
  -13.8210   -2.8120  -21.4180 Cl  0  0  0  0  0  0  0  0  0  0  0  0
  -13.2300   -1.2750  -23.5620 C   0  0  0  0  0  0  0  0  0  0  0  0
  -14.5680   -1.1600  -23.7160 F   0  0  0  0  0  0  0  0  0  0  0  0
  -12.4020   -0.5670  -24.3990 C   0  0  0  0  0  0  0  0  0  0  0  0
  -11.0380   -0.6850  -24.2100 C   0  0  0  0  0  0  0  0  0  0  0  0
  -10.2580    0.0300  -25.0850 O   0  0  0  0  0  0  0  0  0  0  0  0
   -8.9440    0.3450  -24.5940 C   0  0  0  0  0  0  0  0  0  0  0  0
   -8.2200   -0.9020  -24.1350 C   0  0  0  0  0  0  0  0  0  0  0  0
   -8.6240   -2.9690  -22.7930 O   0  0  0  0  0  0  0  0  0  0  0  0
   -8.7400   -3.8550  -23.9120 C   0  0  0  0  0  0  0  0  0  0  0  0
   -7.4050   -1.4430  -21.1370 N   0  0  0  0  0  0  0  0  0  0  0  0
   -6.6700   -0.9570  -20.0340 C   0  0  0  0  0  0  0  0  0  0  0  0
   -5.5490   -0.1000  -20.2840 C   0  0  0  0  0  0  0  0  0  0  0  0
   -5.0990    0.2520  -21.5840 C   0  0  0  0  0  0  0  0  0  0  0  0
   -4.0450    1.1040  -21.7560 C   0  0  0  0  0  0  0  0  0  0  0  0
   -3.3860    1.6450  -20.6610 C   0  0  0  0  0  0  0  0  0  0  0  0
   -3.7790    1.3360  -19.3920 C   0  0  0  0  0  0  0  0  0  0  0  0
   -4.8690    0.4570  -19.1670 C   0  0  0  0  0  0  0  0  0  0  0  0
   -5.3400    0.1200  -17.8740 C   0  0  0  0  0  0  0  0  0  0  0  0
   -6.3710   -0.6780  -17.6410 N   0  0  0  0  0  0  0  0  0  0  0  0
   -7.0060   -1.1960  -18.7020 C   0  0  0  0  0  0  0  0  0  0  0  0
  2  1  2  0
  3  2  1  0
  4  3  1  0
  5  4  2  0
  6  5  1  0
  7  6  1  0
  8  6  2  0
  9  8  1  0
 10  8  1  0
 11 10  2  0
 11  4  1  0
 12 11  1  0
 13 12  1  0
 14 13  1  0
 14  3  1  0
  3 15  1  1
 16 15  1  0
 17  2  1  0
 18 17  1  0
 19 18  1  0
 20 19  2  0
 21 20  1  0
 22 21  2  0
 23 22  1  0
 24 19  1  0
 24 23  2  0
 25 24  1  0
 26 25  2  0
 27 26  1  0
 27 18  2  0
M  END
$$$$

     RDKit          3D

 26 30  0  0  0  0  0  0  0  0999 V2000
  -10.5150   -2.0100  -23.5250 C   0  0  2  0  0  0  0  0  0  0  0  0
   -6.4990   -1.2580  -18.8270 C   0  0  0  0  0  0  0  0  0  0  0  0
  -11.4080   -2.7590  -24.4780 C   0  0  0  0  0  0  0  0  0  0  0  0
  -12.7620   -2.4750  -24.5670 C   0  0  0  0  0  0  0  0  0  0  0  0
   -9.1400   -1.4930  -23.9970 C   0  0  0  0  0  0  0  0  0  0  0  0
  -13.5850   -3.1820  -25.4380 C   0  0  0  0  0  0  0  0  0  0  0  0
  -13.0680   -4.1900  -26.2200 C   0  0  0  0  0  0  0  0  0  0  0  0
  -11.7310   -4.4950  -26.1280 C   0  0  0  0  0  0  0  0  0  0  0  0
  -10.9060   -3.7850  -25.2630 C   0  0  0  0  0  0  0  0  0  0  0  0
   -7.9740   -1.2130  -21.6870 C   0  0  0  0  0  0  0  0  0  0  0  0
   -6.0450   -1.0130  -20.1190 C   0  0  0  0  0  0  0  0  0  0  0  0
   -7.2700   -2.9400  -22.9390 N   0  0  0  0  0  0  0  0  0  0  0  0
   -6.7120   -1.6000  -21.2480 N   0  0  0  0  0  0  0  0  0  0  0  0
   -9.8030   -2.8650  -22.4550 C   0  0  0  0  0  0  0  0  0  0  0  0
   -5.9220   -0.7120  -17.7530 N   0  0  0  0  0  0  0  0  0  0  0  0
   -5.2230   -3.2440  -21.9170 O   0  0  0  0  0  0  0  0  0  0  0  0
   -6.2840   -2.6720  -22.0340 C   0  0  0  0  0  0  0  0  0  0  0  0
   -8.4710   -2.1430  -22.7570 C   0  0  2  0  0  0  0  0  0  0  0  0
   -8.5650   -0.2420  -21.2570 O   0  0  0  0  0  0  0  0  0  0  0  0
   -4.8970    0.1010  -17.9260 C   0  0  0  0  0  0  0  0  0  0  0  0
   -4.3530    0.4560  -19.1790 C   0  0  0  0  0  0  0  0  0  0  0  0
   -3.2550    1.3310  -19.3310 C   0  0  0  0  0  0  0  0  0  0  0  0
   -2.7800    1.6150  -20.5770 C   0  0  0  0  0  0  0  0  0  0  0  0
   -3.3680    1.0450  -21.7190 C   0  0  0  0  0  0  0  0  0  0  0  0
   -4.4360    0.2020  -21.6010 C   0  0  0  0  0  0  0  0  0  0  0  0
   -4.9490   -0.1240  -20.3250 C   0  0  0  0  0  0  0  0  0  0  0  0
  1  3  1  6
  4  3  2  0
  5  1  1  0
  6  4  1  0
  7  6  2  0
  8  7  1  0
  9  8  2  0
  9  3  1  0
 11  2  2  0
 13 11  1  0
 13 10  1  0
 14  1  1  0
 15  2  1  0
 17 12  1  0
 17 13  1  0
 17 16  2  0
 18 14  1  1
 18 12  1  0
 18  5  1  0
 18 10  1  0
 19 10  2  0
 20 15  2  0
 21 20  1  0
 22 21  2  0
 23 22  1  0
 24 23  2  0
 25 24  1  0
 26 11  1  0
 26 25  2  0
 26 21  1  0
M  END
$$$$

     RDKit          3D

 14 15  0  0  0  0  0  0  0  0999 V2000
   -7.0940   -5.7130  -21.3930 N   0  0  0  0  0  0  0  0  0  0  0  0
   -6.7750   -4.0970  -19.5890 C   0  0  0  0  0  0  0  0  0  0  0  0
   -5.3480   -5.9320  -19.9850 O   0  0  0  0  0  0  0  0  0  0  0  0
   -6.3530   -5.3290  -20.3630 C   0  0  0  0  0  0  0  0  0  0  0  0
   -6.5750   -6.5670  -22.4450 C   0  0  0  0  0  0  0  0  0  0  0  0
   -5.5030   -5.8570  -23.2250 C   0  0  0  0  0  0  0  0  0  0  0  0
   -5.6990   -4.5580  -23.6580 C   0  0  0  0  0  0  0  0  0  0  0  0
   -4.7280   -3.8540  -24.3730 C   0  0  0  0  0  0  0  0  0  0  0  0
   -3.5620   -4.5130  -24.6250 C   0  0  0  0  0  0  0  0  0  0  0  0
   -1.4870   -5.1010  -25.2050 C   0  0  0  0  0  0  0  0  0  0  0  0
   -3.3480   -5.8010  -24.1910 C   0  0  0  0  0  0  0  0  0  0  0  0
   -4.2880   -6.4990  -23.4860 C   0  0  0  0  0  0  0  0  0  0  0  0
   -2.4550   -4.0530  -25.2960 O   0  0  0  0  0  0  0  0  0  0  0  0
   -2.0940   -6.2230  -24.5660 O   0  0  0  0  0  0  0  0  0  0  0  0
  4  1  1  0
  4  2  1  0
  4  3  2  0
  5  1  1  0
  6  5  1  0
  7  6  2  0
  8  7  1  0
  9  8  2  0
 11  9  1  0
 12  6  1  0
 12 11  2  0
 13 10  1  0
 13  9  1  0
 14 11  1  0
 14 10  1  0
M  END
$$$$

     RDKit          3D

 21 22  0  0  0  0  0  0  0  0999 V2000
  -13.5260   -3.0150  -21.8280 Cl  0  0  0  0  0  0  0  0  0  0  0  0
  -12.4410   -1.8840  -22.5810 C   0  0  0  0  0  0  0  0  0  0  0  0
  -12.9490   -0.7170  -23.1170 C   0  0  0  0  0  0  0  0  0  0  0  0
  -12.0690    0.1910  -23.6840 C   0  0  0  0  0  0  0  0  0  0  0  0
  -10.7110   -0.0800  -23.7200 C   0  0  0  0  0  0  0  0  0  0  0  0
  -11.0900   -2.1710  -22.6060 C   0  0  0  0  0  0  0  0  0  0  0  0
  -10.2060   -1.2610  -23.1790 C   0  0  0  0  0  0  0  0  0  0  0  0
   -8.6990   -1.5210  -23.1560 C   0  0  1  0  0  0  0  0  0  0  0  0
   -8.4690   -2.9270  -23.1120 O   0  0  0  0  0  0  0  0  0  0  0  0
   -8.0100   -0.9460  -24.4150 C   0  0  0  0  0  0  0  0  0  0  0  0
   -6.5620   -1.3800  -24.5970 C   0  0  0  0  0  0  0  0  0  0  0  0
   -8.1240   -0.8320  -21.8750 C   0  0  0  0  0  0  0  0  0  0  0  0
   -8.6000    0.2250  -21.4940 O   0  0  0  0  0  0  0  0  0  0  0  0
   -7.0770   -1.4320  -21.2650 N   0  0  0  0  0  0  0  0  0  0  0  0
   -6.3630   -0.8850  -20.1690 C   0  0  0  0  0  0  0  0  0  0  0  0
   -5.2460   -0.0590  -20.4090 C   0  0  0  0  0  0  0  0  0  0  0  0
   -4.7140    0.1830  -21.7980 C   0  0  0  0  0  0  0  0  0  0  0  0
   -4.6540    0.5520  -19.3090 C   0  0  0  0  0  0  0  0  0  0  0  0
   -5.1730    0.3400  -18.0490 C   0  0  0  0  0  0  0  0  0  0  0  0
   -6.2210   -0.4560  -17.8060 N   0  0  0  0  0  0  0  0  0  0  0  0
   -6.7900   -1.0590  -18.8540 C   0  0  0  0  0  0  0  0  0  0  0  0
  2  1  1  0
  3  2  2  0
  4  3  1  0
  5  4  2  0
  6  2  1  0
  7  6  2  0
  7  5  1  0
  8  7  1  0
  8  9  1  1
 10  8  1  0
 11 10  1  0
 12  8  1  0
 13 12  2  0
 14 12  1  0
 15 14  1  0
 16 15  2  0
 17 16  1  0
 18 16  1  0
 19 18  2  0
 20 19  1  0
 21 20  2  0
 21 15  1  0
M  END
$$$$

     RDKit          3D

 18 20  0  0  0  0  0  0  0  0999 V2000
  -22.5880   16.9990   -4.7710 C   0  0  0  0  0  0  0  0  0  0  0  0
  -21.7550   18.1020   -4.6370 C   0  0  0  0  0  0  0  0  0  0  0  0
  -21.0840   18.5880   -5.7480 C   0  0  0  0  0  0  0  0  0  0  0  0
  -21.2250   17.9730   -6.9880 C   0  0  0  0  0  0  0  0  0  0  0  0
  -22.0550   16.8660   -7.1200 C   0  0  0  0  0  0  0  0  0  0  0  0
  -22.7300   16.3820   -6.0050 C   0  0  0  0  0  0  0  0  0  0  0  0
  -23.6540   15.1800   -6.1060 C   0  0  0  0  0  0  0  0  0  0  0  0
  -24.0910   12.9770   -5.0160 C   0  0  0  0  0  0  0  0  0  0  0  0
  -25.7830   11.6040   -5.2460 C   0  0  0  0  0  0  0  0  0  0  0  0
  -26.9740   10.9020   -5.6100 C   0  0  0  0  0  0  0  0  0  0  0  0
  -27.3060    9.7170   -4.9560 C   0  0  0  0  0  0  0  0  0  0  0  0
  -26.4820    9.2200   -3.9410 C   0  0  0  0  0  0  0  0  0  0  0  0
  -25.3250    9.9090   -3.5870 C   0  0  0  0  0  0  0  0  0  0  0  0
  -24.9780   11.1170   -4.2600 C   0  0  0  0  0  0  0  0  0  0  0  0
  -23.2140   14.1160   -5.2240 N   0  0  0  0  0  0  0  0  0  0  0  0
  -25.2120   12.7560   -5.6990 N   0  0  0  0  0  0  0  0  0  0  0  0
  -23.9390   11.9830   -4.1400 N   0  0  0  0  0  0  0  0  0  0  0  0
  -23.2800   16.4920   -3.6660 O   0  0  0  0  0  0  0  0  0  0  0  0
  2  1  2  0
  3  2  1  0
  4  3  2  0
  5  4  1  0
  6  5  2  0
  6  1  1  0
  7  6  1  0
 10  9  2  0
 11 10  1  0
 12 11  2  0
 13 12  1  0
 14 13  2  0
 14  9  1  0
 15  7  1  0
 15  8  1  0
 16  9  1  0
 16  8  2  0
 17 14  1  0
 17  8  1  0
 18  1  1  0
M  END
$$$$

     RDKit          3D

 32 36  0  0  0  0  0  0  0  0999 V2000
   -8.8940    0.1470  -21.4710 O   0  0  0  0  0  0  0  0  0  0  0  0
   -8.4070   -0.9270  -21.8220 C   0  0  0  0  0  0  0  0  0  0  0  0
   -7.3200   -1.4700  -21.2310 N   0  0  0  0  0  0  0  0  0  0  0  0
   -6.5690   -0.9350  -20.1670 C   0  0  0  0  0  0  0  0  0  0  0  0
   -5.4270   -0.1310  -20.4770 C   0  0  0  0  0  0  0  0  0  0  0  0
   -4.9210    0.0490  -21.7920 C   0  0  0  0  0  0  0  0  0  0  0  0
   -3.8380    0.8510  -22.0230 C   0  0  0  0  0  0  0  0  0  0  0  0
   -3.2120    1.5150  -20.9760 C   0  0  0  0  0  0  0  0  0  0  0  0
   -3.6550    1.3660  -19.6930 C   0  0  0  0  0  0  0  0  0  0  0  0
   -4.7650    0.5310  -19.4040 C   0  0  0  0  0  0  0  0  0  0  0  0
   -5.2600    0.3220  -18.0920 C   0  0  0  0  0  0  0  0  0  0  0  0
   -6.3020   -0.4440  -17.8020 N   0  0  0  0  0  0  0  0  0  0  0  0
   -6.9320   -1.0460  -18.8220 C   0  0  0  0  0  0  0  0  0  0  0  0
   -8.9610   -1.7300  -23.0010 C   0  0  1  0  0  0  0  0  0  0  0  0
  -10.4470   -1.4650  -23.1090 C   0  0  0  0  0  0  0  0  0  0  0  0
  -10.9210   -0.3730  -23.8480 C   0  0  0  0  0  0  0  0  0  0  0  0
  -12.2890   -0.0890  -23.8740 C   0  0  0  0  0  0  0  0  0  0  0  0
  -13.1810   -0.8910  -23.1840 C   0  0  0  0  0  0  0  0  0  0  0  0
  -11.3580   -2.2850  -22.4480 C   0  0  0  0  0  0  0  0  0  0  0  0
  -12.7050   -1.9820  -22.4910 C   0  0  0  0  0  0  0  0  0  0  0  0
  -13.8240   -2.9870  -21.6100 Cl  0  0  0  0  0  0  0  0  0  0  0  0
   -8.2690   -1.3110  -24.2970 C   0  0  0  0  0  0  0  0  0  0  0  0
   -8.6870    0.0310  -24.7140 N   0  0  0  0  0  0  0  0  0  0  0  0
   -9.9990    0.4470  -24.6520 C   0  0  0  0  0  0  0  0  0  0  0  0
  -10.3690    1.4810  -25.1790 O   0  0  0  0  0  0  0  0  0  0  0  0
   -7.7820    0.6590  -25.6600 C   0  0  0  0  0  0  0  0  0  0  0  0
   -7.2660    2.0430  -25.2950 C   0  0  0  0  0  0  0  0  0  0  0  0
   -6.5590    2.6700  -26.0830 O   0  0  0  0  0  0  0  0  0  0  0  0
   -7.6500    2.5400  -24.1110 N   0  0  0  0  0  0  0  0  0  0  0  0
   -6.7120    2.9530  -23.0660 C   0  0  2  0  0  0  0  0  0  0  0  0
   -7.0040    4.1860  -22.2990 C   0  0  0  0  0  0  0  0  0  0  0  0
   -5.8930    4.1680  -23.2840 C   0  0  0  0  0  0  0  0  0  0  0  0
  2  1  2  0
  3  2  1  0
  4  3  1  0
  5  4  1  0
  6  5  2  0
  7  6  1  0
  8  7  2  0
  9  8  1  0
 10  9  2  0
 10  5  1  0
 11 10  1  0
 12 11  2  0
 13 12  1  0
 13  4  2  0
 14  2  1  1
 15 14  1  0
 16 15  1  0
 17 16  2  0
 18 17  1  0
 19 15  2  0
 20 19  1  0
 20 18  2  0
 21 20  1  0
 22 14  1  0
 23 22  1  0
 24 16  1  0
 24 23  1  0
 25 24  2  0
 26 23  1  0
 27 26  1  0
 28 27  2  0
 29 27  1  0
 30 29  1  6
 31 30  1  0
 32 31  1  0
 32 30  1  0
M  END
$$$$

     RDKit          3D

 26 29  0  0  0  0  0  0  0  0999 V2000
   -5.9150   -3.5870  -21.1430 O   0  0  0  0  0  0  0  0  0  0  0  0
   -6.7540   -2.8690  -21.6640 C   0  0  0  0  0  0  0  0  0  0  0  0
   -7.5990   -3.3680  -22.8450 C   0  0  2  0  0  0  0  0  0  0  0  0
   -7.5760   -2.3390  -23.9680 C   0  0  0  0  0  0  0  0  0  0  0  0
   -6.3620   -1.8000  -24.3780 C   0  0  0  0  0  0  0  0  0  0  0  0
   -6.3430   -0.8540  -25.3830 C   0  0  0  0  0  0  0  0  0  0  0  0
   -4.8110   -0.2150  -25.8980 Cl  0  0  0  0  0  0  0  0  0  0  0  0
   -7.4960   -0.4230  -26.0030 C   0  0  0  0  0  0  0  0  0  0  0  0
   -8.7120   -0.9530  -25.6140 C   0  0  0  0  0  0  0  0  0  0  0  0
   -8.7480   -1.9040  -24.6070 C   0  0  0  0  0  0  0  0  0  0  0  0
   -9.9970   -2.3950  -24.3040 O   0  0  0  0  0  0  0  0  0  0  0  0
  -10.0180   -3.6120  -23.5290 C   0  0  0  0  0  0  0  0  0  0  0  0
   -9.0580   -3.5250  -22.3610 C   0  0  0  0  0  0  0  0  0  0  0  0
   -7.1390   -4.7430  -23.3510 C   0  0  0  0  0  0  0  0  0  0  0  0
   -5.7000   -4.8680  -23.5860 N   0  0  0  0  0  0  0  0  0  0  0  0
   -6.9870   -1.6190  -21.2320 N   0  0  0  0  0  0  0  0  0  0  0  0
   -6.3260   -0.9800  -20.1650 C   0  0  0  0  0  0  0  0  0  0  0  0
   -5.1590   -0.2160  -20.4520 C   0  0  0  0  0  0  0  0  0  0  0  0
   -4.5990   -0.0880  -21.7490 C   0  0  0  0  0  0  0  0  0  0  0  0
   -3.4630    0.6420  -21.9520 C   0  0  0  0  0  0  0  0  0  0  0  0
   -2.8350    1.2820  -20.8960 C   0  0  0  0  0  0  0  0  0  0  0  0
   -3.3390    1.1960  -19.6290 C   0  0  0  0  0  0  0  0  0  0  0  0
   -4.5100    0.4450  -19.3720 C   0  0  0  0  0  0  0  0  0  0  0  0
   -5.0750    0.3020  -18.0820 C   0  0  0  0  0  0  0  0  0  0  0  0
   -6.1570   -0.4160  -17.8150 N   0  0  0  0  0  0  0  0  0  0  0  0
   -6.7510   -1.0450  -18.8350 C   0  0  0  0  0  0  0  0  0  0  0  0
  2  1  2  0
  3  2  1  0
  4  3  1  0
  5  4  2  0
  6  5  1  0
  7  6  1  0
  8  6  2  0
  9  8  1  0
 10  9  2  0
 10  4  1  0
 11 10  1  0
 12 11  1  0
 13 12  1  0
 13  3  1  0
  3 14  1  6
 15 14  1  0
 16  2  1  0
 17 16  1  0
 18 17  1  0
 19 18  2  0
 20 19  1  0
 21 20  2  0
 22 21  1  0
 23 22  2  0
 23 18  1  0
 24 23  1  0
 25 24  2  0
 26 25  1  0
 26 17  2  0
M  CHG  1  15   1
M  END
$$$$

     RDKit          3D

 27 31  0  0  0  0  0  0  0  0999 V2000
   -9.0660    0.2570  -21.3700 O   0  0  0  0  0  0  0  0  0  0  0  0
   -8.5780   -0.7830  -21.7740 C   0  0  0  0  0  0  0  0  0  0  0  0
   -8.9780   -1.5420  -23.0430 C   0  0  2  0  0  0  0  0  0  0  0  0
   -8.2780   -0.8300  -24.2300 C   0  0  0  0  0  0  0  0  0  0  0  0
   -9.2360   -0.4780  -25.3530 C   0  0  0  0  0  0  0  0  0  0  0  0
  -10.4240    0.1630  -24.8610 O   0  0  0  0  0  0  0  0  0  0  0  0
  -10.5080   -1.5610  -23.1620 C   0  0  0  0  0  0  0  0  0  0  0  0
  -11.1350   -0.6630  -24.0300 C   0  0  0  0  0  0  0  0  0  0  0  0
  -12.5140   -0.5940  -24.1400 C   0  0  0  0  0  0  0  0  0  0  0  0
  -13.2950   -1.4190  -23.3540 C   0  0  0  0  0  0  0  0  0  0  0  0
  -11.3080   -2.4000  -22.3870 C   0  0  0  0  0  0  0  0  0  0  0  0
  -12.6850   -2.2780  -22.4610 C   0  0  0  0  0  0  0  0  0  0  0  0
  -13.6660   -3.0670  -21.2560 Cl  0  0  0  0  0  0  0  0  0  0  0  0
   -7.5380   -1.4930  -21.1600 N   0  0  0  0  0  0  0  0  0  0  0  0
   -7.2980   -2.7250  -21.7630 C   0  0  0  0  0  0  0  0  0  0  0  0
   -6.3660   -3.4600  -21.4700 O   0  0  0  0  0  0  0  0  0  0  0  0
   -8.3500   -2.9350  -22.8190 C   0  0  0  0  0  0  0  0  0  0  0  0
   -6.7520   -0.9740  -20.0720 C   0  0  0  0  0  0  0  0  0  0  0  0
   -5.6750   -0.0920  -20.3520 C   0  0  0  0  0  0  0  0  0  0  0  0
   -5.2220    0.2370  -21.6570 C   0  0  0  0  0  0  0  0  0  0  0  0
   -4.1740    1.0950  -21.8420 C   0  0  0  0  0  0  0  0  0  0  0  0
   -3.5310    1.6710  -20.7540 C   0  0  0  0  0  0  0  0  0  0  0  0
   -3.9330    1.3890  -19.4810 C   0  0  0  0  0  0  0  0  0  0  0  0
   -5.0100    0.5010  -19.2440 C   0  0  0  0  0  0  0  0  0  0  0  0
   -5.4740    0.1710  -17.9440 C   0  0  0  0  0  0  0  0  0  0  0  0
   -6.4820   -0.6570  -17.6970 N   0  0  0  0  0  0  0  0  0  0  0  0
   -7.1000   -1.2150  -18.7480 C   0  0  0  0  0  0  0  0  0  0  0  0
  2  1  2  0
  3  2  1  0
  3  4  1  6
  5  4  1  0
  6  5  1  0
  7  3  1  0
  8  7  2  0
  8  6  1  0
  9  8  1  0
 10  9  2  0
 11  7  1  0
 12 11  2  0
 12 10  1  0
 13 12  1  0
 14  2  1  0
 15 14  1  0
 16 15  2  0
 17  3  1  0
 17 15  1  0
 18 14  1  0
 19 18  1  0
 20 19  2  0
 21 20  1  0
 22 21  2  0
 23 22  1  0
 24 19  1  0
 24 23  2  0
 25 24  1  0
 26 25  2  0
 27 26  1  0
 27 18  2  0
M  END
$$$$

     RDKit          3D

 20 22  0  0  0  0  0  0  0  0999 V2000
   -6.0150   -0.6600  -20.3400 C   0  0  0  0  0  0  0  0  0  0  0  0
   -5.3450    0.2470  -17.8480 C   0  0  0  0  0  0  0  0  0  0  0  0
   -8.5870   -1.7650  -22.5660 N   0  0  0  0  0  0  0  0  0  0  0  0
   -6.3800   -0.5960  -17.9590 N   0  0  0  0  0  0  0  0  0  0  0  0
   -4.5930    0.6690  -18.9300 C   0  0  0  0  0  0  0  0  0  0  0  0
  -12.6210   -1.7430  -23.7930 C   0  0  0  0  0  0  0  0  0  0  0  0
   -8.6290    0.2890  -21.5010 O   0  0  0  0  0  0  0  0  0  0  0  0
  -12.2230   -2.4520  -22.6750 C   0  0  0  0  0  0  0  0  0  0  0  0
   -8.0150   -0.6820  -21.9000 C   0  0  0  0  0  0  0  0  0  0  0  0
  -11.6610   -1.0720  -24.5370 C   0  0  0  0  0  0  0  0  0  0  0  0
   -7.6890   -2.8360  -22.6620 C   0  0  0  0  0  0  0  0  0  0  0  0
   -6.5280   -2.4210  -22.1110 N   0  0  0  0  0  0  0  0  0  0  0  0
   -7.9190   -3.9290  -23.1570 O   0  0  0  0  0  0  0  0  0  0  0  0
  -10.9050   -2.4930  -22.2670 C   0  0  0  0  0  0  0  0  0  0  0  0
   -6.5470   -1.0170  -21.7210 C   0  0  0  0  0  0  0  0  0  0  0  0
   -9.9540   -1.8010  -23.0120 C   0  0  0  0  0  0  0  0  0  0  0  0
   -6.6850   -1.0390  -19.1850 C   0  0  0  0  0  0  0  0  0  0  0  0
   -4.9370    0.2010  -20.1870 C   0  0  0  0  0  0  0  0  0  0  0  0
  -10.3280   -1.1010  -24.1560 C   0  0  0  0  0  0  0  0  0  0  0  0
  -13.4090   -3.3520  -21.7720 Cl  0  0  0  0  0  0  0  0  0  0  0  0
  4  2  2  0
  5  2  1  0
  8  6  2  0
  9  3  1  0
  9  7  1  0
 10  6  1  0
 11  3  1  0
 12 11  1  0
 13 11  2  0
 14  8  1  0
 15 12  1  0
 15  9  2  0
 15  1  1  0
 16 14  2  0
 16  3  1  0
 17  4  1  0
 17  1  2  0
 18  1  1  0
 18  5  2  0
 19 10  2  0
 19 16  1  0
 20  8  1  0
M  CHG  1   7  -1
M  END
$$$$

     RDKit          3D

 15 15  0  0  0  0  0  0  0  0999 V2000
   -4.5480  -30.9860  -10.6050 C   0  0  0  0  0  0  0  0  0  0  0  0
   -4.0500  -30.7570   -9.1780 C   0  0  0  0  0  0  0  0  0  0  0  0
   -4.4270  -28.2410   -9.2630 C   0  0  0  0  0  0  0  0  0  0  0  0
   -3.5170  -27.0270   -9.2210 C   0  0  0  0  0  0  0  0  0  0  0  0
   -3.0620  -26.4540  -10.3990 C   0  0  0  0  0  0  0  0  0  0  0  0
   -2.2600  -25.3270  -10.3440 C   0  0  0  0  0  0  0  0  0  0  0  0
   -1.9270  -24.7770   -9.1170 C   0  0  0  0  0  0  0  0  0  0  0  0
   -2.3920  -25.3450   -7.9540 C   0  0  0  0  0  0  0  0  0  0  0  0
   -3.1880  -26.4650   -8.0110 C   0  0  0  0  0  0  0  0  0  0  0  0
   -3.9770  -29.4350   -8.5600 N   0  0  0  0  0  0  0  0  0  0  0  0
   -1.1990  -22.4580   -7.5470 N   0  0  0  0  0  0  0  0  0  0  0  0
   -3.6850  -31.6990   -8.5600 O   0  0  0  0  0  0  0  0  0  0  0  0
   -1.0620  -22.4090  -10.1270 O   0  0  0  0  0  0  0  0  0  0  0  0
    0.5410  -23.6520   -9.0940 O   0  0  0  0  0  0  0  0  0  0  0  0
   -0.8790  -23.3050   -8.9890 S   0  0  2  0  0  0  0  0  0  0  0  0
  2  1  1  0
  4  3  1  0
  5  4  2  0
  6  5  1  0
  7  6  2  0
  8  7  1  0
  9  8  2  0
  9  4  1  0
 10  3  1  0
 10  2  1  0
 12  2  2  0
 15 14  2  0
 15 13  2  0
 15 11  1  1
 15  7  1  0
M  END
$$$$

     RDKit          3D

 27 30  0  0  0  0  0  0  0  0999 V2000
   -9.1880    0.0190  -21.1930 O   0  0  0  0  0  0  0  0  0  0  0  0
   -8.6680   -0.9650  -21.7010 C   0  0  0  0  0  0  0  0  0  0  0  0
   -9.2540   -1.5440  -23.0460 C   0  0  1  0  0  0  0  0  0  0  0  0
  -10.7670   -1.5710  -23.1150 C   0  0  0  0  0  0  0  0  0  0  0  0
  -11.5230   -2.2640  -22.1720 C   0  0  0  0  0  0  0  0  0  0  0  0
  -12.8940   -2.2240  -22.2560 C   0  0  0  0  0  0  0  0  0  0  0  0
  -13.6130   -2.8090  -21.2630 F   0  0  0  0  0  0  0  0  0  0  0  0
  -13.5820   -1.5620  -23.2400 C   0  0  0  0  0  0  0  0  0  0  0  0
  -12.8330   -0.8670  -24.1490 C   0  0  0  0  0  0  0  0  0  0  0  0
  -13.4560   -0.1910  -25.1400 F   0  0  0  0  0  0  0  0  0  0  0  0
  -11.4490   -0.8420  -24.1120 C   0  0  0  0  0  0  0  0  0  0  0  0
  -10.8120   -0.0800  -25.0570 O   0  0  0  0  0  0  0  0  0  0  0  0
   -9.4570   -0.4670  -25.3100 C   0  0  0  0  0  0  0  0  0  0  0  0
   -8.6630   -0.5130  -24.0230 C   0  0  0  0  0  0  0  0  0  0  0  0
   -8.6290   -2.7530  -23.5110 O   0  0  0  0  0  0  0  0  0  0  0  0
   -9.0520   -3.9890  -22.9240 C   0  0  0  0  0  0  0  0  0  0  0  0
   -7.5420   -1.5350  -21.2160 N   0  0  0  0  0  0  0  0  0  0  0  0
   -6.7730   -1.0570  -20.1350 C   0  0  0  0  0  0  0  0  0  0  0  0
   -5.6400   -0.2360  -20.4200 C   0  0  0  0  0  0  0  0  0  0  0  0
   -5.1740    0.0410  -21.7330 C   0  0  0  0  0  0  0  0  0  0  0  0
   -4.1020    0.8630  -21.9410 C   0  0  0  0  0  0  0  0  0  0  0  0
   -3.4440    1.4500  -20.8690 C   0  0  0  0  0  0  0  0  0  0  0  0
   -3.8490    1.2110  -19.5870 C   0  0  0  0  0  0  0  0  0  0  0  0
   -4.9520    0.3600  -19.3260 C   0  0  0  0  0  0  0  0  0  0  0  0
   -5.4240    0.0820  -18.0200 C   0  0  0  0  0  0  0  0  0  0  0  0
   -6.4670   -0.6890  -17.7540 N   0  0  0  0  0  0  0  0  0  0  0  0
   -7.1110   -1.2410  -18.7930 C   0  0  0  0  0  0  0  0  0  0  0  0
  2  1  2  0
  3  2  1  0
  4  3  1  0
  5  4  2  0
  6  5  1  0
  7  6  1  0
  8  6  2  0
  9  8  1  0
 10  9  1  0
 11  9  2  0
 11  4  1  0
 12 11  1  0
 13 12  1  0
 14 13  1  0
 14  3  1  0
  3 15  1  6
 16 15  1  0
 17  2  1  0
 18 17  1  0
 19 18  1  0
 20 19  2  0
 21 20  1  0
 22 21  2  0
 23 22  1  0
 24 19  1  0
 24 23  2  0
 25 24  1  0
 26 25  2  0
 27 26  1  0
 27 18  2  0
M  END
$$$$

     RDKit          3D

 23 25  0  0  0  0  0  0  0  0999 V2000
   -8.8820   -1.7430  -22.2480 N   0  0  0  0  0  0  0  0  0  0  0  0
  -12.2310    3.0270  -22.0750 N   0  0  0  0  0  0  0  0  0  0  0  0
   -6.1020   -0.3100  -17.6370 N   0  0  0  0  0  0  0  0  0  0  0  0
  -12.3940   -2.2320  -23.3010 C   0  0  0  0  0  0  0  0  0  0  0  0
  -11.8520    0.1070  -23.4390 C   0  0  0  0  0  0  0  0  0  0  0  0
  -12.3840    1.3260  -23.8020 O   0  0  0  0  0  0  0  0  0  0  0  0
   -5.0660    0.4760  -17.9480 C   0  0  0  0  0  0  0  0  0  0  0  0
  -11.1030   -2.4750  -22.8530 C   0  0  0  0  0  0  0  0  0  0  0  0
   -6.0500   -1.0510  -19.9120 C   0  0  0  0  0  0  0  0  0  0  0  0
   -6.7810   -1.6900  -21.0730 C   0  0  0  0  0  0  0  0  0  0  0  0
   -8.0650   -0.9910  -21.4780 C   0  0  0  0  0  0  0  0  0  0  0  0
  -10.5640   -0.1360  -22.9980 C   0  0  0  0  0  0  0  0  0  0  0  0
  -12.6240    3.6420  -24.0190 C   0  0  0  0  0  0  0  0  0  0  0  0
   -6.5720   -1.0700  -18.6320 C   0  0  0  0  0  0  0  0  0  0  0  0
  -11.7610    2.5460  -23.3750 C   0  0  1  0  0  0  0  0  0  0  0  0
  -12.9010    4.0780  -22.5880 C   0  0  0  0  0  0  0  0  0  0  0  0
  -13.3740   -3.3670  -23.4820 C   0  0  0  0  0  0  0  0  0  0  0  0
   -4.4840    0.5950  -19.1460 N   0  0  0  0  0  0  0  0  0  0  0  0
   -8.3210    0.1570  -21.1290 O   0  0  0  0  0  0  0  0  0  0  0  0
  -13.4930    5.0150  -22.0540 O   0  0  0  0  0  0  0  0  0  0  0  0
   -4.9980   -0.1750  -20.1130 C   0  0  0  0  0  0  0  0  0  0  0  0
  -10.1860   -1.4400  -22.7000 C   0  0  0  0  0  0  0  0  0  0  0  0
  -12.7640   -0.9250  -23.5910 C   0  0  0  0  0  0  0  0  0  0  0  0
  6  5  1  0
  7  3  2  0
  8  4  2  0
 10  9  1  0
 11  1  1  0
 11 10  1  0
 12  5  1  0
 14  9  2  0
 14  3  1  0
 15 13  1  0
 15  6  1  6
 15  2  1  0
 16 13  1  0
 16  2  1  0
 17  4  1  0
 18  7  1  0
 19 11  2  0
 20 16  2  0
 21  9  1  0
 21 18  2  0
 22  8  1  0
 22 12  2  0
 22  1  1  0
 23  5  2  0
 23  4  1  0
M  END
$$$$

     RDKit          3D

 19 20  0  0  0  0  0  0  0  0999 V2000
   -5.5380   -6.3620  -24.4240 N   0  0  0  0  0  0  0  0  0  0  0  0
   -0.5900   -2.0130  -25.9090 C   0  0  0  0  0  0  0  0  0  0  0  0
   -5.9040   -5.9060  -26.8080 O   0  0  0  0  0  0  0  0  0  0  0  0
   -1.6490   -3.0760  -25.9140 C   0  0  0  0  0  0  0  0  0  0  0  0
   -6.2400   -5.1610  -23.9440 C   0  0  0  0  0  0  0  0  0  0  0  0
   -6.0660   -5.6620  -20.5890 C   0  0  0  0  0  0  0  0  0  0  0  0
   -6.7680   -4.3930  -20.1860 C   0  0  0  0  0  0  0  0  0  0  0  0
   -2.8910   -2.8400  -26.4820 C   0  0  0  0  0  0  0  0  0  0  0  0
   -3.8770   -3.8090  -26.4920 C   0  0  0  0  0  0  0  0  0  0  0  0
   -3.6210   -5.0410  -25.9110 C   0  0  0  0  0  0  0  0  0  0  0  0
   -2.3840   -5.3040  -25.3420 C   0  0  0  0  0  0  0  0  0  0  0  0
   -1.4160   -4.3180  -25.3460 C   0  0  0  0  0  0  0  0  0  0  0  0
   -4.7580   -7.0000  -23.3520 C   0  0  0  0  0  0  0  0  0  0  0  0
   -5.7060   -7.4070  -22.2560 C   0  0  0  0  0  0  0  0  0  0  0  0
   -7.1700   -5.5460  -22.8210 C   0  0  0  0  0  0  0  0  0  0  0  0
   -6.4210   -6.2300  -21.7620 N   0  0  0  0  0  0  0  0  0  0  0  0
   -4.1900   -7.5480  -26.1140 O   0  0  0  0  0  0  0  0  0  0  0  0
   -5.1910   -6.1300  -19.8710 O   0  0  0  0  0  0  0  0  0  0  0  0
   -4.8610   -6.3010  -25.9150 S   0  0  1  0  0  0  0  0  0  0  0  0
  4  2  1  0
  5  1  1  0
  7  6  1  0
  8  4  2  0
  9  8  1  0
 10  9  2  0
 11 10  1  0
 12 11  2  0
 12  4  1  0
 13  1  1  0
 14 13  1  0
 15  5  1  0
 16 15  1  0
 16 14  1  0
 16  6  1  0
 18  6  2  0
 19  3  2  0
 19  1  1  1
 19 17  2  0
 19 10  1  0
M  END
$$$$

     RDKit          3D

 24 26  0  0  0  0  0  0  0  0999 V2000
   -2.1070    2.0870  -21.2600 F   0  0  0  0  0  0  0  0  0  0  0  0
   -3.1630    1.3010  -20.9420 C   0  0  0  0  0  0  0  0  0  0  0  0
   -3.7880    0.6210  -21.9780 C   0  0  0  0  0  0  0  0  0  0  0  0
   -3.3030    0.8790  -23.2290 O   0  0  0  0  0  0  0  0  0  0  0  0
   -3.4370   -0.1420  -24.2220 C   0  0  0  0  0  0  0  0  0  0  0  0
   -3.5720    1.2170  -19.6600 C   0  0  0  0  0  0  0  0  0  0  0  0
   -4.6800    0.4010  -19.3360 C   0  0  0  0  0  0  0  0  0  0  0  0
   -5.3430   -0.3050  -20.3800 C   0  0  0  0  0  0  0  0  0  0  0  0
   -4.8590   -0.1750  -21.6980 C   0  0  0  0  0  0  0  0  0  0  0  0
   -5.1720    0.2400  -18.0170 C   0  0  0  0  0  0  0  0  0  0  0  0
   -6.2080   -0.5260  -17.6940 N   0  0  0  0  0  0  0  0  0  0  0  0
   -6.8330   -1.1740  -18.6860 C   0  0  0  0  0  0  0  0  0  0  0  0
   -6.4760   -1.1040  -20.0330 C   0  0  0  0  0  0  0  0  0  0  0  0
   -7.2000   -1.7100  -21.0820 N   0  0  0  0  0  0  0  0  0  0  0  0
   -8.2620   -1.2240  -21.7690 C   0  0  0  0  0  0  0  0  0  0  0  0
   -8.7600   -0.1140  -21.5660 O   0  0  0  0  0  0  0  0  0  0  0  0
   -8.8140   -2.1670  -22.8210 C   0  0  0  0  0  0  0  0  0  0  0  0
  -10.2460   -1.8610  -23.1960 C   0  0  0  0  0  0  0  0  0  0  0  0
  -11.2940   -2.3900  -22.4470 C   0  0  0  0  0  0  0  0  0  0  0  0
  -12.5890   -1.9770  -22.6960 C   0  0  0  0  0  0  0  0  0  0  0  0
  -13.8810   -2.6060  -21.7050 Cl  0  0  0  0  0  0  0  0  0  0  0  0
  -12.8840   -1.0690  -23.6940 C   0  0  0  0  0  0  0  0  0  0  0  0
  -11.8470   -0.5760  -24.4710 C   0  0  0  0  0  0  0  0  0  0  0  0
  -10.5400   -0.9690  -24.2200 C   0  0  0  0  0  0  0  0  0  0  0  0
  2  1  1  0
  3  2  2  0
  4  3  1  0
  5  4  1  0
  6  2  1  0
  7  6  2  0
  8  7  1  0
  9  3  1  0
  9  8  2  0
 10  7  1  0
 11 10  2  0
 12 11  1  0
 13 12  2  0
 13  8  1  0
 14 13  1  0
 15 14  1  0
 16 15  2  0
 17 15  1  0
 18 17  1  0
 19 18  2  0
 20 19  1  0
 21 20  1  0
 22 20  2  0
 23 22  1  0
 24 23  2  0
 24 18  1  0
M  END
$$$$

     RDKit          3D

 16 17  0  0  0  0  0  0  0  0999 V2000
  -10.3970   -1.6850  -23.6600 Br  0  0  0  0  0  0  0  0  0  0  0  0
   -8.7910   -2.5340  -23.1180 C   0  0  0  0  0  0  0  0  0  0  0  0
   -8.8240   -3.4020  -22.0460 C   0  0  0  0  0  0  0  0  0  0  0  0
   -7.6760   -4.1150  -21.7210 C   0  0  0  0  0  0  0  0  0  0  0  0
   -7.4370   -5.2090  -20.7070 C   0  0  1  0  0  0  0  0  0  0  0  0
   -8.0510   -6.3550  -21.2810 O   0  0  0  0  0  0  0  0  0  0  0  0
   -5.9440   -5.4420  -20.8800 C   0  0  0  0  0  0  0  0  0  0  0  0
   -5.2800   -6.2240  -20.2120 O   0  0  0  0  0  0  0  0  0  0  0  0
   -5.4950   -4.6960  -21.9140 N   0  0  0  0  0  0  0  0  0  0  0  0
   -6.5020   -3.9220  -22.4470 C   0  0  0  0  0  0  0  0  0  0  0  0
   -7.6420   -2.3250  -23.8560 C   0  0  0  0  0  0  0  0  0  0  0  0
   -6.4800   -3.0270  -23.5340 C   0  0  0  0  0  0  0  0  0  0  0  0
   -5.2910   -2.8130  -24.4070 C   0  0  0  0  0  0  0  0  0  0  0  0
   -4.2780   -3.4630  -24.3430 O   0  0  0  0  0  0  0  0  0  0  0  0
   -5.4920   -1.8240  -25.2840 O   0  0  0  0  0  0  0  0  0  0  0  0
   -4.4380   -1.5940  -26.2500 C   0  0  0  0  0  0  0  0  0  0  0  0
  2  1  1  0
  3  2  2  0
  4  3  1  0
  5  4  1  0
  5  6  1  6
  7  5  1  0
  8  7  2  0
  9  7  1  0
 10  9  1  0
 10  4  2  0
 11  2  1  0
 12 11  2  0
 12 10  1  0
 13 12  1  0
 14 13  2  0
 15 13  1  0
 16 15  1  0
M  END
$$$$

     RDKit          3D

 21 22  0  0  0  0  0  0  0  0999 V2000
   -7.0940   -3.6790  -18.6000 C   0  0  0  0  0  0  0  0  0  0  0  0
   -6.0760   -3.8010  -19.7100 C   0  0  0  0  0  0  0  0  0  0  0  0
   -4.9860   -4.2960  -19.5470 O   0  0  0  0  0  0  0  0  0  0  0  0
   -6.4290   -3.2530  -20.8860 N   0  0  0  0  0  0  0  0  0  0  0  0
   -5.8950   -3.7590  -22.1490 C   0  0  0  0  0  0  0  0  0  0  0  0
   -7.3930   -2.1660  -21.0640 C   0  0  0  0  0  0  0  0  0  0  0  0
   -8.5230   -2.6290  -21.9620 C   0  0  0  0  0  0  0  0  0  0  0  0
   -8.0270   -3.2180  -23.2240 N   0  0  1  0  0  0  0  0  0  0  0  0
   -7.0450   -4.3070  -22.9770 C   0  0  1  0  0  0  0  0  0  0  0  0
   -6.5800   -4.9990  -24.2600 C   0  0  0  0  0  0  0  0  0  0  0  0
   -5.5610   -6.1300  -24.0770 C   0  0  1  0  0  0  0  0  0  0  0  0
   -6.0070   -7.1780  -23.0490 C   0  0  0  0  0  0  0  0  0  0  0  0
   -5.2560   -6.7920  -25.4100 C   0  0  0  0  0  0  0  0  0  0  0  0
   -9.1510   -3.6420  -24.0740 C   0  0  0  0  0  0  0  0  0  0  0  0
  -10.3460   -2.7180  -24.0150 C   0  0  0  0  0  0  0  0  0  0  0  0
  -11.3600   -2.9420  -23.0880 C   0  0  0  0  0  0  0  0  0  0  0  0
  -12.4100   -2.0520  -22.9940 C   0  0  0  0  0  0  0  0  0  0  0  0
  -13.6730   -2.3600  -21.8340 Cl  0  0  0  0  0  0  0  0  0  0  0  0
  -12.4950   -0.9420  -23.8050 C   0  0  0  0  0  0  0  0  0  0  0  0
  -11.4980   -0.7310  -24.7460 C   0  0  0  0  0  0  0  0  0  0  0  0
  -10.4350   -1.6130  -24.8490 C   0  0  0  0  0  0  0  0  0  0  0  0
  2  1  1  0
  3  2  2  0
  4  2  1  0
  5  4  1  0
  6  4  1  0
  7  6  1  0
  8  7  1  0
  9  8  1  0
  9  5  1  0
  9 10  1  6
 11 10  1  0
 11 12  1  1
 13 11  1  0
  8 14  1  1
 15 14  1  0
 16 15  2  0
 17 16  1  0
 18 17  1  0
 19 17  2  0
 20 19  1  0
 21 20  2  0
 21 15  1  0
M  CHG  1   8   1
M  END
$$$$

     RDKit          3D

 22 23  0  0  0  0  0  0  0  0999 V2000
  -13.4050   -3.1050  -21.7310 Cl  0  0  0  0  0  0  0  0  0  0  0  0
  -12.2800   -2.0870  -22.5870 C   0  0  0  0  0  0  0  0  0  0  0  0
  -12.7420   -0.9530  -23.2230 C   0  0  0  0  0  0  0  0  0  0  0  0
  -11.8230   -0.1040  -23.8250 C   0  0  0  0  0  0  0  0  0  0  0  0
  -10.4690   -0.4060  -23.7910 C   0  0  0  0  0  0  0  0  0  0  0  0
  -10.9390   -2.4070  -22.5570 C   0  0  0  0  0  0  0  0  0  0  0  0
  -10.0140   -1.5520  -23.1520 C   0  0  0  0  0  0  0  0  0  0  0  0
   -8.5190   -1.8240  -23.0020 C   0  0  1  0  0  0  0  0  0  0  0  0
   -7.7710   -1.3800  -24.2530 C   0  0  0  0  0  0  0  0  0  0  0  0
   -7.1030   -0.3850  -24.3330 O   0  0  0  0  0  0  0  0  0  0  0  0
   -7.9980   -2.2240  -25.2610 O   0  0  0  0  0  0  0  0  0  0  0  0
   -7.5640   -1.8020  -26.5760 C   0  0  0  0  0  0  0  0  0  0  0  0
   -7.9940   -1.0420  -21.7720 C   0  0  0  0  0  0  0  0  0  0  0  0
   -8.5430   -0.0240  -21.3680 O   0  0  0  0  0  0  0  0  0  0  0  0
   -6.8970   -1.5700  -21.1980 N   0  0  0  0  0  0  0  0  0  0  0  0
   -6.2360   -0.9430  -20.1090 C   0  0  0  0  0  0  0  0  0  0  0  0
   -5.1000   -0.1490  -20.3440 C   0  0  0  0  0  0  0  0  0  0  0  0
   -4.5260    0.0310  -21.7270 C   0  0  0  0  0  0  0  0  0  0  0  0
   -4.5440    0.5120  -19.2540 C   0  0  0  0  0  0  0  0  0  0  0  0
   -5.1120    0.3650  -18.0030 C   0  0  0  0  0  0  0  0  0  0  0  0
   -6.1890   -0.3930  -17.7650 N   0  0  0  0  0  0  0  0  0  0  0  0
   -6.7330   -1.0310  -18.8070 C   0  0  0  0  0  0  0  0  0  0  0  0
  2  1  1  0
  3  2  2  0
  4  3  1  0
  5  4  2  0
  6  2  1  0
  7  6  2  0
  7  5  1  0
  8  7  1  0
  8  9  1  6
 10  9  2  0
 11  9  1  0
 12 11  1  0
 13  8  1  0
 14 13  2  0
 15 13  1  0
 16 15  1  0
 17 16  2  0
 18 17  1  0
 19 17  1  0
 20 19  2  0
 21 20  1  0
 22 21  2  0
 22 16  1  0
M  END
$$$$

     RDKit          3D

 24 27  0  0  0  0  0  0  0  0999 V2000
  -13.5760   -3.0290  -21.2550 Cl  0  0  0  0  0  0  0  0  0  0  0  0
  -12.6120   -2.1070  -22.3720 C   0  0  0  0  0  0  0  0  0  0  0  0
  -13.2410   -1.2810  -23.2770 C   0  0  0  0  0  0  0  0  0  0  0  0
  -12.4750   -0.5660  -24.1790 C   0  0  0  0  0  0  0  0  0  0  0  0
  -11.2390   -2.2310  -22.3270 C   0  0  0  0  0  0  0  0  0  0  0  0
  -10.4510   -1.5030  -23.2140 C   0  0  0  0  0  0  0  0  0  0  0  0
  -11.0930   -0.6770  -24.1390 C   0  0  0  0  0  0  0  0  0  0  0  0
  -10.3990    0.0810  -25.0490 O   0  0  0  0  0  0  0  0  0  0  0  0
   -9.1950   -0.5450  -25.5030 C   0  0  0  0  0  0  0  0  0  0  0  0
   -8.2370   -0.8290  -24.3700 C   0  0  0  0  0  0  0  0  0  0  0  0
   -8.9360   -1.5710  -23.1860 C   0  0  1  0  0  0  0  0  0  0  0  0
   -8.4770   -0.9310  -21.8750 C   0  0  0  0  0  0  0  0  0  0  0  0
   -9.0530    0.0330  -21.3830 O   0  0  0  0  0  0  0  0  0  0  0  0
   -7.3570   -1.4730  -21.3400 N   0  0  0  0  0  0  0  0  0  0  0  0
   -6.6270   -0.9170  -20.2550 C   0  0  0  0  0  0  0  0  0  0  0  0
   -7.0680   -1.0860  -18.9440 C   0  0  0  0  0  0  0  0  0  0  0  0
   -6.4440   -0.5750  -17.8800 N   0  0  0  0  0  0  0  0  0  0  0  0
   -5.3200    0.1150  -18.0890 C   0  0  0  0  0  0  0  0  0  0  0  0
   -5.4560   -0.1730  -20.4720 C   0  0  0  0  0  0  0  0  0  0  0  0
   -4.7160    0.2550  -21.5660 N   0  0  0  0  0  0  0  0  0  0  0  0
   -4.9990    0.0490  -22.9810 C   0  0  0  0  0  0  0  0  0  0  0  0
   -4.7760    0.3280  -19.3520 C   0  0  0  0  0  0  0  0  0  0  0  0
   -3.6280    1.0040  -19.7530 N   0  0  0  0  0  0  0  0  0  0  0  0
   -3.6520    0.9300  -21.0590 C   0  0  0  0  0  0  0  0  0  0  0  0
  2  1  1  0
  3  2  2  0
  4  3  1  0
  5  2  1  0
  6  5  2  0
  7  4  2  0
  7  6  1  0
  8  7  1  0
  9  8  1  0
 10  9  1  0
 11 10  1  0
 11  6  1  0
 11 12  1  1
 13 12  2  0
 14 12  1  0
 15 14  1  0
 16 15  2  0
 17 16  1  0
 18 17  2  0
 19 15  1  0
 20 19  1  0
 21 20  1  0
 22 19  2  0
 22 18  1  0
 23 22  1  0
 24 23  2  0
 24 20  1  0
M  END
$$$$

     RDKit          3D

 24 27  0  0  0  0  0  0  0  0999 V2000
   -8.6040   -0.1470  -21.2950 O   0  0  0  0  0  0  0  0  0  0  0  0
   -7.9860   -1.0510  -21.8350 C   0  0  0  0  0  0  0  0  0  0  0  0
   -8.4620   -1.6390  -23.1620 C   0  0  2  0  0  0  0  0  0  0  0  0
   -9.9750   -1.6140  -23.2700 C   0  0  0  0  0  0  0  0  0  0  0  0
  -10.7630   -2.2590  -22.3250 C   0  0  0  0  0  0  0  0  0  0  0  0
  -12.1420   -2.2650  -22.4290 C   0  0  0  0  0  0  0  0  0  0  0  0
  -10.6010   -0.9800  -24.3350 C   0  0  0  0  0  0  0  0  0  0  0  0
  -11.9790   -0.9710  -24.4520 C   0  0  0  0  0  0  0  0  0  0  0  0
  -12.7350   -1.6110  -23.4920 C   0  0  0  0  0  0  0  0  0  0  0  0
  -14.4710   -1.5700  -23.6050 Cl  0  0  0  0  0  0  0  0  0  0  0  0
   -6.8180   -1.5410  -21.3180 N   0  0  0  0  0  0  0  0  0  0  0  0
   -6.2500   -2.8630  -21.6350 C   0  0  0  0  0  0  0  0  0  0  0  0
   -6.4750   -3.1890  -23.0980 C   0  0  0  0  0  0  0  0  0  0  0  0
   -7.9530   -3.0660  -23.4440 C   0  0  0  0  0  0  0  0  0  0  0  0
   -6.2280   -0.9620  -20.1530 C   0  0  0  0  0  0  0  0  0  0  0  0
   -5.1380   -0.0630  -20.3160 C   0  0  0  0  0  0  0  0  0  0  0  0
   -4.5800    0.2890  -21.5730 C   0  0  0  0  0  0  0  0  0  0  0  0
   -3.5420    1.1700  -21.6590 C   0  0  0  0  0  0  0  0  0  0  0  0
   -3.0040    1.7450  -20.5150 C   0  0  0  0  0  0  0  0  0  0  0  0
   -3.5030    1.4410  -19.2830 C   0  0  0  0  0  0  0  0  0  0  0  0
   -4.5770    0.5290  -19.1460 C   0  0  0  0  0  0  0  0  0  0  0  0
   -5.1330    0.1680  -17.8940 C   0  0  0  0  0  0  0  0  0  0  0  0
   -6.1370   -0.6870  -17.7460 N   0  0  0  0  0  0  0  0  0  0  0  0
   -6.6580   -1.2270  -18.8580 C   0  0  0  0  0  0  0  0  0  0  0  0
  2  1  2  0
  3  2  1  0
  3  4  1  1
  5  4  2  0
  6  5  1  0
  7  4  1  0
  8  7  2  0
  9  8  1  0
  9  6  2  0
 10  9  1  0
 11  2  1  0
 12 11  1  0
 13 12  1  0
 14 13  1  0
 14  3  1  0
 15 11  1  0
 16 15  1  0
 17 16  2  0
 18 17  1  0
 19 18  2  0
 20 19  1  0
 21 20  2  0
 21 16  1  0
 22 21  1  0
 23 22  2  0
 24 23  1  0
 24 15  2  0
M  END
$$$$

     RDKit          3D

 24 27  0  0  0  0  0  0  0  0999 V2000
   -8.7330   -0.0630  -21.3550 O   0  0  0  0  0  0  0  0  0  0  0  0
   -8.2930   -1.0580  -21.8950 C   0  0  0  0  0  0  0  0  0  0  0  0
   -8.9350   -1.6080  -23.1610 C   0  0  2  0  0  0  0  0  0  0  0  0
  -10.4400   -1.3830  -23.1630 C   0  0  0  0  0  0  0  0  0  0  0  0
  -11.0120   -0.4450  -24.0140 C   0  0  0  0  0  0  0  0  0  0  0  0
  -12.3800   -0.2330  -24.0160 C   0  0  0  0  0  0  0  0  0  0  0  0
  -13.2030   -0.9700  -23.1810 C   0  0  0  0  0  0  0  0  0  0  0  0
  -11.2640   -2.1140  -22.3150 C   0  0  0  0  0  0  0  0  0  0  0  0
  -12.6300   -1.9060  -22.3460 C   0  0  0  0  0  0  0  0  0  0  0  0
  -13.6540   -2.8870  -21.3370 Cl  0  0  0  0  0  0  0  0  0  0  0  0
   -7.1890   -1.7010  -21.4050 N   0  0  0  0  0  0  0  0  0  0  0  0
   -6.5260   -2.8850  -21.9980 C   0  0  0  0  0  0  0  0  0  0  0  0
   -7.0020   -3.1830  -23.4090 C   0  0  0  0  0  0  0  0  0  0  0  0
   -8.5170   -3.0400  -23.5010 C   0  0  0  0  0  0  0  0  0  0  0  0
   -6.4820   -1.1060  -20.3140 C   0  0  0  0  0  0  0  0  0  0  0  0
   -5.3680   -0.2340  -20.5010 C   0  0  0  0  0  0  0  0  0  0  0  0
   -4.8400    0.1230  -21.7710 C   0  0  0  0  0  0  0  0  0  0  0  0
   -3.7560    0.9480  -21.8740 C   0  0  0  0  0  0  0  0  0  0  0  0
   -3.1530    1.4700  -20.7380 C   0  0  0  0  0  0  0  0  0  0  0  0
   -3.6410    1.1820  -19.4970 C   0  0  0  0  0  0  0  0  0  0  0  0
   -4.7630    0.3310  -19.3430 C   0  0  0  0  0  0  0  0  0  0  0  0
   -5.3340    0.0190  -18.0820 C   0  0  0  0  0  0  0  0  0  0  0  0
   -6.3860   -0.7760  -17.9160 N   0  0  0  0  0  0  0  0  0  0  0  0
   -6.9230   -1.3240  -19.0150 C   0  0  0  0  0  0  0  0  0  0  0  0
  2  1  2  0
  3  2  1  0
  3  4  1  1
  5  4  2  0
  6  5  1  0
  7  6  2  0
  8  4  1  0
  9  8  2  0
  9  7  1  0
 10  9  1  0
 11  2  1  0
 12 11  1  0
 13 12  1  0
 14 13  1  0
 14  3  1  0
 15 11  1  0
 16 15  1  0
 17 16  2  0
 18 17  1  0
 19 18  2  0
 20 19  1  0
 21 20  2  0
 21 16  1  0
 22 21  1  0
 23 22  2  0
 24 23  1  0
 24 15  2  0
M  END
$$$$

     RDKit          3D

 33 37  0  0  0  0  0  0  0  0999 V2000
   -8.8710    0.0640  -21.4430 O   0  0  0  0  0  0  0  0  0  0  0  0
   -8.3590   -1.0000  -21.7970 C   0  0  0  0  0  0  0  0  0  0  0  0
   -7.2680   -1.5320  -21.1960 N   0  0  0  0  0  0  0  0  0  0  0  0
   -6.5400   -0.9980  -20.1070 C   0  0  0  0  0  0  0  0  0  0  0  0
   -5.4340   -0.1290  -20.3750 C   0  0  0  0  0  0  0  0  0  0  0  0
   -4.9240    0.1230  -21.6760 C   0  0  0  0  0  0  0  0  0  0  0  0
   -3.8710    0.9740  -21.8640 C   0  0  0  0  0  0  0  0  0  0  0  0
   -3.2860    1.6270  -20.7870 C   0  0  0  0  0  0  0  0  0  0  0  0
   -3.7340    1.4130  -19.5160 C   0  0  0  0  0  0  0  0  0  0  0  0
   -4.8070    0.5210  -19.2720 C   0  0  0  0  0  0  0  0  0  0  0  0
   -5.2960    0.2340  -17.9730 C   0  0  0  0  0  0  0  0  0  0  0  0
   -6.3020   -0.5910  -17.7210 N   0  0  0  0  0  0  0  0  0  0  0  0
   -6.8960   -1.1830  -18.7680 C   0  0  0  0  0  0  0  0  0  0  0  0
   -8.9020   -1.8070  -22.9820 C   0  0  1  0  0  0  0  0  0  0  0  0
  -10.3810   -1.5260  -23.1460 C   0  0  0  0  0  0  0  0  0  0  0  0
  -10.8180   -0.4210  -23.8870 C   0  0  0  0  0  0  0  0  0  0  0  0
  -12.1760   -0.0980  -23.9270 C   0  0  0  0  0  0  0  0  0  0  0  0
  -13.0970   -0.8600  -23.2300 C   0  0  0  0  0  0  0  0  0  0  0  0
  -11.3240   -2.3110  -22.4790 C   0  0  0  0  0  0  0  0  0  0  0  0
  -12.6600   -1.9540  -22.5150 C   0  0  0  0  0  0  0  0  0  0  0  0
  -13.8110   -2.8710  -21.5820 Cl  0  0  0  0  0  0  0  0  0  0  0  0
   -8.1570   -1.3850  -24.2500 C   0  0  0  0  0  0  0  0  0  0  0  0
   -8.5580   -0.0390  -24.6680 N   0  0  0  0  0  0  0  0  0  0  0  0
   -9.8590    0.4090  -24.6390 C   0  0  0  0  0  0  0  0  0  0  0  0
  -10.1880    1.4720  -25.1340 O   0  0  0  0  0  0  0  0  0  0  0  0
   -7.4740    0.8800  -24.9790 C   0  0  0  0  0  0  0  0  0  0  0  0
   -7.6000    2.2990  -24.4460 C   0  0  0  0  0  0  0  0  0  0  0  0
   -7.7520    3.2480  -25.2130 O   0  0  0  0  0  0  0  0  0  0  0  0
   -7.5950    2.4360  -23.1160 N   0  0  0  0  0  0  0  0  0  0  0  0
   -6.7600    3.4080  -22.4070 C   0  0  1  0  0  0  0  0  0  0  0  0
   -5.4920    3.9680  -23.1230 C   0  0  0  0  0  0  0  0  0  0  0  0
   -5.8750    5.3370  -22.8370 O   0  0  0  0  0  0  0  0  0  0  0  0
   -7.2000    4.9080  -22.4340 C   0  0  0  0  0  0  0  0  0  0  0  0
  2  1  2  0
  3  2  1  0
  4  3  1  0
  5  4  1  0
  6  5  2  0
  7  6  1  0
  8  7  2  0
  9  8  1  0
 10  9  2  0
 10  5  1  0
 11 10  1  0
 12 11  2  0
 13 12  1  0
 13  4  2  0
 14  2  1  1
 15 14  1  0
 16 15  1  0
 17 16  2  0
 18 17  1  0
 19 15  2  0
 20 19  1  0
 20 18  2  0
 21 20  1  0
 22 14  1  0
 23 22  1  0
 24 23  1  0
 24 16  1  0
 25 24  2  0
 26 23  1  0
 27 26  1  0
 28 27  2  0
 29 27  1  0
 30 29  1  6
 31 30  1  0
 32 31  1  0
 33 32  1  0
 33 30  1  0
M  END
$$$$

     RDKit          3D

 32 35  0  0  0  0  0  0  0  0999 V2000
   -8.8750    0.3470  -21.0750 O   0  0  0  0  0  0  0  0  0  0  0  0
   -8.4460   -0.6020  -21.7160 C   0  0  0  0  0  0  0  0  0  0  0  0
   -7.4150   -1.5400  -21.1110 C   0  0  0  0  0  0  0  0  0  0  0  0
   -6.6300   -0.9190  -19.9750 C   0  0  0  0  0  0  0  0  0  0  0  0
   -5.5740    0.0040  -20.2300 C   0  0  0  0  0  0  0  0  0  0  0  0
   -5.1700    0.3850  -21.5390 C   0  0  0  0  0  0  0  0  0  0  0  0
   -4.1670    1.2930  -21.7290 C   0  0  0  0  0  0  0  0  0  0  0  0
   -3.5140    1.8650  -20.6430 C   0  0  0  0  0  0  0  0  0  0  0  0
   -3.8580    1.5240  -19.3660 C   0  0  0  0  0  0  0  0  0  0  0  0
   -4.8990    0.5900  -19.1260 C   0  0  0  0  0  0  0  0  0  0  0  0
   -5.3250    0.2130  -17.8300 C   0  0  0  0  0  0  0  0  0  0  0  0
   -6.3040   -0.6510  -17.5940 N   0  0  0  0  0  0  0  0  0  0  0  0
   -6.9210   -1.1960  -18.6510 C   0  0  0  0  0  0  0  0  0  0  0  0
   -8.8570   -0.8470  -22.9940 N   0  0  0  0  0  0  0  0  0  0  0  0
   -9.9310   -0.0290  -23.5630 C   0  0  0  0  0  0  0  0  0  0  0  0
  -11.2010   -0.8030  -23.8110 C   0  0  0  0  0  0  0  0  0  0  0  0
  -11.8900   -1.3810  -22.7510 C   0  0  0  0  0  0  0  0  0  0  0  0
  -13.0320   -2.1170  -23.0000 C   0  0  0  0  0  0  0  0  0  0  0  0
  -13.8890   -2.8180  -21.6570 Cl  0  0  0  0  0  0  0  0  0  0  0  0
  -13.5120   -2.3040  -24.2780 C   0  0  0  0  0  0  0  0  0  0  0  0
  -12.8250   -1.7290  -25.3360 C   0  0  0  0  0  0  0  0  0  0  0  0
  -11.6800   -0.9820  -25.1010 C   0  0  0  0  0  0  0  0  0  0  0  0
   -8.2400   -1.8040  -23.8530 C   0  0  0  0  0  0  0  0  0  0  0  0
   -7.2430   -1.3980  -24.7310 C   0  0  0  0  0  0  0  0  0  0  0  0
   -6.4940   -2.3430  -25.4000 C   0  0  0  0  0  0  0  0  0  0  0  0
   -8.4580   -3.1670  -23.6740 C   0  0  0  0  0  0  0  0  0  0  0  0
   -7.7420   -4.1010  -24.3150 N   0  0  0  0  0  0  0  0  0  0  0  0
   -6.7770   -3.6930  -25.1630 C   0  0  0  0  0  0  0  0  0  0  0  0
   -6.0670   -4.7200  -25.8010 N   0  0  0  0  0  0  0  0  0  0  0  0
   -5.0360   -4.6120  -26.6820 C   0  0  0  0  0  0  0  0  0  0  0  0
   -4.3420   -3.5980  -26.7880 O   0  0  0  0  0  0  0  0  0  0  0  0
   -4.8020   -5.8250  -27.5330 C   0  0  0  0  0  0  0  0  0  0  0  0
  2  1  2  0
  3  2  1  0
  4  3  1  0
  5  4  1  0
  6  5  2  0
  7  6  1  0
  8  7  2  0
  9  8  1  0
 10  5  1  0
 10  9  2  0
 11 10  1  0
 12 11  2  0
 13 12  1  0
 13  4  2  0
 14  2  1  0
 15 14  1  0
 16 15  1  0
 17 16  2  0
 18 17  1  0
 19 18  1  0
 20 18  2  0
 21 20  1  0
 22 21  2  0
 22 16  1  0
 23 14  1  0
 24 23  2  0
 25 24  1  0
 26 23  1  0
 27 26  2  0
 28 27  1  0
 28 25  2  0
 29 28  1  0
 30 29  1  0
 31 30  2  0
 32 30  1  0
M  END
$$$$

     RDKit          3D

 23 26  0  0  0  0  0  0  0  0999 V2000
   -9.0920    0.3580  -21.3940 O   0  0  0  0  0  0  0  0  0  0  0  0
   -8.6530   -0.7160  -21.7770 C   0  0  0  0  0  0  0  0  0  0  0  0
   -9.2100   -1.5900  -22.8960 C   0  0  2  0  0  0  0  0  0  0  0  0
  -10.7170   -1.5080  -23.0820 C   0  0  0  0  0  0  0  0  0  0  0  0
  -11.2620   -0.6240  -24.0060 C   0  0  0  0  0  0  0  0  0  0  0  0
  -12.6370   -0.4640  -24.1100 C   0  0  0  0  0  0  0  0  0  0  0  0
  -13.4880   -1.1830  -23.2850 C   0  0  0  0  0  0  0  0  0  0  0  0
  -11.5710   -2.2570  -22.2790 C   0  0  0  0  0  0  0  0  0  0  0  0
  -12.9380   -2.0690  -22.3750 C   0  0  0  0  0  0  0  0  0  0  0  0
  -13.9850   -2.9100  -21.2640 Cl  0  0  0  0  0  0  0  0  0  0  0  0
   -7.5520   -1.3520  -21.2720 N   0  0  0  0  0  0  0  0  0  0  0  0
   -7.3110   -2.6610  -21.8990 C   0  0  0  0  0  0  0  0  0  0  0  0
   -8.6660   -2.9920  -22.5210 C   0  0  0  0  0  0  0  0  0  0  0  0
   -6.7110   -0.8400  -20.2340 C   0  0  0  0  0  0  0  0  0  0  0  0
   -5.5770   -0.0160  -20.5090 C   0  0  0  0  0  0  0  0  0  0  0  0
   -5.1530    0.3440  -21.8160 C   0  0  0  0  0  0  0  0  0  0  0  0
   -4.0820    1.1740  -22.0050 C   0  0  0  0  0  0  0  0  0  0  0  0
   -3.3860    1.6910  -20.9190 C   0  0  0  0  0  0  0  0  0  0  0  0
   -3.7580    1.3800  -19.6420 C   0  0  0  0  0  0  0  0  0  0  0  0
   -4.8570    0.5180  -19.4010 C   0  0  0  0  0  0  0  0  0  0  0  0
   -5.3090    0.1850  -18.0990 C   0  0  0  0  0  0  0  0  0  0  0  0
   -6.3630   -0.5770  -17.8490 N   0  0  0  0  0  0  0  0  0  0  0  0
   -7.0320   -1.0670  -18.9000 C   0  0  0  0  0  0  0  0  0  0  0  0
  2  1  2  0
  3  2  1  0
  3  4  1  1
  5  4  2  0
  6  5  1  0
  7  6  2  0
  8  4  1  0
  9  8  2  0
  9  7  1  0
 10  9  1  0
 11  2  1  0
 12 11  1  0
 13 12  1  0
 13  3  1  0
 14 11  1  0
 15 14  1  0
 16 15  2  0
 17 16  1  0
 18 17  2  0
 19 18  1  0
 20 15  1  0
 20 19  2  0
 21 20  1  0
 22 21  2  0
 23 22  1  0
 23 14  2  0
M  END
$$$$

     RDKit          3D

 19 20  0  0  0  0  0  0  0  0999 V2000
  -14.1720   -3.2440  -20.8400 N   0  0  0  0  0  0  0  0  0  0  0  0
  -13.4670   -2.7020  -21.5590 C   0  0  0  0  0  0  0  0  0  0  0  0
  -12.5660   -2.0550  -22.4760 C   0  0  0  0  0  0  0  0  0  0  0  0
  -13.0640   -1.2360  -23.4880 C   0  0  0  0  0  0  0  0  0  0  0  0
  -12.1920   -0.6610  -24.3970 C   0  0  0  0  0  0  0  0  0  0  0  0
  -10.8290   -0.8860  -24.2890 C   0  0  0  0  0  0  0  0  0  0  0  0
  -11.1940   -2.2760  -22.3690 C   0  0  0  0  0  0  0  0  0  0  0  0
  -10.3160   -1.6840  -23.2740 C   0  0  0  0  0  0  0  0  0  0  0  0
   -8.8250   -1.8720  -23.1170 C   0  0  0  0  0  0  0  0  0  0  0  0
   -8.3420   -1.0710  -21.9250 C   0  0  0  0  0  0  0  0  0  0  0  0
   -9.0020   -0.1480  -21.4550 O   0  0  0  0  0  0  0  0  0  0  0  0
   -7.1690   -1.4840  -21.4130 N   0  0  0  0  0  0  0  0  0  0  0  0
   -6.5280   -0.9090  -20.2980 C   0  0  0  0  0  0  0  0  0  0  0  0
   -5.3380   -0.1910  -20.4830 C   0  0  0  0  0  0  0  0  0  0  0  0
   -4.7390    0.0210  -21.8500 C   0  0  0  0  0  0  0  0  0  0  0  0
   -7.0510   -1.0310  -19.0090 C   0  0  0  0  0  0  0  0  0  0  0  0
   -6.4710   -0.4920  -17.9300 N   0  0  0  0  0  0  0  0  0  0  0  0
   -5.3310    0.1820  -18.1150 C   0  0  0  0  0  0  0  0  0  0  0  0
   -4.7420    0.3590  -19.3520 C   0  0  0  0  0  0  0  0  0  0  0  0
  2  1  3  0
  3  2  1  0
  4  3  2  0
  5  4  1  0
  6  5  2  0
  7  3  1  0
  8  7  2  0
  8  6  1  0
  9  8  1  0
 10  9  1  0
 11 10  2  0
 12 10  1  0
 13 12  1  0
 14 13  2  0
 15 14  1  0
 16 13  1  0
 17 16  2  0
 18 17  1  0
 19 18  2  0
 19 14  1  0
M  END
$$$$

     RDKit          3D

 28 31  0  0  0  0  0  0  0  0999 V2000
  -13.9200   -2.7350  -21.4420 Cl  0  0  0  0  0  0  0  0  0  0  0  0
  -12.7650   -1.9620  -22.4940 C   0  0  0  0  0  0  0  0  0  0  0  0
  -13.2030   -1.0130  -23.3970 C   0  0  0  0  0  0  0  0  0  0  0  0
  -12.2790   -0.3810  -24.2120 C   0  0  0  0  0  0  0  0  0  0  0  0
  -11.4280   -2.2890  -22.3770 C   0  0  0  0  0  0  0  0  0  0  0  0
  -10.4820   -1.6370  -23.1680 C   0  0  0  0  0  0  0  0  0  0  0  0
  -10.9180   -0.6820  -24.1060 C   0  0  0  0  0  0  0  0  0  0  0  0
  -10.0130   -0.0310  -24.9280 N   0  0  0  0  0  0  0  0  0  0  0  0
   -8.5700   -0.1550  -24.7570 C   0  0  0  0  0  0  0  0  0  0  0  0
   -8.2130   -1.5460  -24.2720 C   0  0  0  0  0  0  0  0  0  0  0  0
   -8.9980   -1.9010  -22.9910 C   0  0  1  0  0  0  0  0  0  0  0  0
   -8.4950   -1.0830  -21.7990 C   0  0  0  0  0  0  0  0  0  0  0  0
   -9.0640   -0.0540  -21.4260 O   0  0  0  0  0  0  0  0  0  0  0  0
   -7.3670   -1.5660  -21.2180 N   0  0  0  0  0  0  0  0  0  0  0  0
   -6.6450   -1.0090  -20.1360 C   0  0  0  0  0  0  0  0  0  0  0  0
   -6.8950   -1.3140  -18.7960 C   0  0  0  0  0  0  0  0  0  0  0  0
   -6.2530   -0.7740  -17.7480 N   0  0  0  0  0  0  0  0  0  0  0  0
   -5.3010    0.1130  -18.0050 C   0  0  0  0  0  0  0  0  0  0  0  0
   -5.6280   -0.0410  -20.4140 C   0  0  0  0  0  0  0  0  0  0  0  0
   -4.9330    0.5330  -19.3090 C   0  0  0  0  0  0  0  0  0  0  0  0
   -3.9380    1.5080  -19.5600 C   0  0  0  0  0  0  0  0  0  0  0  0
   -3.6570    1.9110  -20.8320 C   0  0  0  0  0  0  0  0  0  0  0  0
   -5.3000    0.4110  -21.7190 C   0  0  0  0  0  0  0  0  0  0  0  0
   -4.3400    1.3900  -21.9340 C   0  0  0  0  0  0  0  0  0  0  0  0
   -4.1190    1.9670  -23.3340 C   0  0  2  0  0  0  0  0  0  0  0  0
   -4.6820    1.1040  -24.3460 O   0  0  0  0  0  0  0  0  0  0  0  0
   -2.6310    2.1020  -23.6440 C   0  0  0  0  0  0  0  0  0  0  0  0
   -4.8130    3.3170  -23.4740 C   0  0  0  0  0  0  0  0  0  0  0  0
  2  1  1  0
  3  2  2  0
  4  3  1  0
  5  2  1  0
  6  5  2  0
  7  4  2  0
  7  6  1  0
  8  7  1  0
  9  8  1  0
 10  9  1  0
 11 10  1  0
 11  6  1  0
 11 12  1  1
 13 12  2  0
 14 12  1  0
 15 14  1  0
 16 15  2  0
 17 16  1  0
 18 17  2  0
 19 15  1  0
 20 19  2  0
 20 18  1  0
 21 20  1  0
 22 21  2  0
 23 19  1  0
 24 23  2  0
 24 22  1  0
 25 24  1  0
 26 25  1  0
 25 27  1  6
 28 25  1  0
M  END
$$$$

     RDKit          3D

 35 39  0  0  0  0  0  0  0  0999 V2000
   -6.1400    6.5710  -23.4180 O   0  0  0  0  0  0  0  0  0  0  0  0
   -7.2740    5.7050  -23.2350 S   0  0  2  0  0  0  0  0  0  0  0  0
   -8.5350    6.2900  -22.8580 O   0  0  0  0  0  0  0  0  0  0  0  0
   -6.8470    4.2380  -22.3080 C   0  0  0  0  0  0  0  0  0  0  0  0
   -7.4460    4.4140  -24.4590 C   0  0  0  0  0  0  0  0  0  0  0  0
   -6.6650    3.3980  -23.5970 C   0  0  1  0  0  0  0  0  0  0  0  0
   -5.1880    3.3030  -23.9880 C   0  0  0  0  0  0  0  0  0  0  0  0
   -7.3110    2.0150  -23.4570 C   0  0  0  0  0  0  0  0  0  0  0  0
   -7.4430    1.0100  -24.9280 S   0  0  1  0  0  0  0  0  0  0  0  0
   -7.9570    1.8180  -25.9870 O   0  0  0  0  0  0  0  0  0  0  0  0
   -6.2080    0.3140  -25.1210 O   0  0  0  0  0  0  0  0  0  0  0  0
   -8.5690   -0.1070  -24.5910 N   0  0  0  0  0  0  0  0  0  0  0  0
   -9.9560    0.1410  -25.0020 C   0  0  0  0  0  0  0  0  0  0  0  0
  -10.9060   -0.6010  -24.0910 C   0  0  0  0  0  0  0  0  0  0  0  0
  -12.2580   -0.2640  -24.1180 C   0  0  0  0  0  0  0  0  0  0  0  0
  -13.1730   -0.9090  -23.3070 C   0  0  0  0  0  0  0  0  0  0  0  0
  -12.7380   -1.9290  -22.4930 C   0  0  0  0  0  0  0  0  0  0  0  0
  -13.8950   -2.7670  -21.4910 Cl  0  0  0  0  0  0  0  0  0  0  0  0
  -11.4060   -2.2980  -22.4400 C   0  0  0  0  0  0  0  0  0  0  0  0
  -10.4700   -1.6150  -23.2210 C   0  0  0  0  0  0  0  0  0  0  0  0
   -8.9870   -1.9170  -23.0780 C   0  0  1  0  0  0  0  0  0  0  0  0
   -8.2350   -1.5230  -24.3490 C   0  0  0  0  0  0  0  0  0  0  0  0
   -8.4480   -1.1050  -21.8950 C   0  0  0  0  0  0  0  0  0  0  0  0
   -9.0280   -0.1020  -21.4710 O   0  0  0  0  0  0  0  0  0  0  0  0
   -7.2860   -1.5770  -21.3650 N   0  0  0  0  0  0  0  0  0  0  0  0
   -6.5750   -1.0710  -20.2450 C   0  0  0  0  0  0  0  0  0  0  0  0
   -5.4090   -0.2640  -20.4620 C   0  0  0  0  0  0  0  0  0  0  0  0
   -4.8240   -0.0470  -21.7380 C   0  0  0  0  0  0  0  0  0  0  0  0
   -3.7210    0.7500  -21.8800 C   0  0  0  0  0  0  0  0  0  0  0  0
   -3.1580    1.3820  -20.7810 C   0  0  0  0  0  0  0  0  0  0  0  0
   -3.6820    1.2040  -19.5300 C   0  0  0  0  0  0  0  0  0  0  0  0
   -4.8050    0.3640  -19.3330 C   0  0  0  0  0  0  0  0  0  0  0  0
   -5.3650    0.1070  -18.0580 C   0  0  0  0  0  0  0  0  0  0  0  0
   -6.4210   -0.6660  -17.8510 N   0  0  0  0  0  0  0  0  0  0  0  0
   -7.0010   -1.2250  -18.9240 C   0  0  0  0  0  0  0  0  0  0  0  0
  2  1  2  0
  3  2  2  0
  2  4  1  1
  5  2  1  0
  6  5  1  0
  6  4  1  0
  6  7  1  6
  8  6  1  0
  9  8  1  1
 10  9  2  0
 11  9  2  0
 12  9  1  0
 13 12  1  0
 14 13  1  0
 15 14  2  0
 16 15  1  0
 17 16  2  0
 18 17  1  0
 19 17  1  0
 20 19  2  0
 20 14  1  0
 21 20  1  0
 22 21  1  0
 22 12  1  0
 21 23  1  1
 24 23  2  0
 25 23  1  0
 26 25  1  0
 27 26  1  0
 28 27  2  0
 29 28  1  0
 30 29  2  0
 31 30  1  0
 32 31  2  0
 32 27  1  0
 33 32  1  0
 34 33  2  0
 35 34  1  0
 35 26  2  0
M  END
$$$$

     RDKit          3D

 27 30  0  0  0  0  0  0  0  0999 V2000
   -9.1800    0.0830  -21.4220 O   0  0  0  0  0  0  0  0  0  0  0  0
   -8.6850   -0.9650  -21.8180 C   0  0  0  0  0  0  0  0  0  0  0  0
   -9.2700   -1.7750  -23.0110 C   0  0  1  0  0  0  0  0  0  0  0  0
  -10.7750   -1.6320  -23.0120 C   0  0  0  0  0  0  0  0  0  0  0  0
  -11.5550   -2.3020  -22.0720 C   0  0  0  0  0  0  0  0  0  0  0  0
  -12.9250   -2.2430  -22.1770 C   0  0  0  0  0  0  0  0  0  0  0  0
  -13.6640   -2.8700  -21.2230 F   0  0  0  0  0  0  0  0  0  0  0  0
  -13.5870   -1.5620  -23.1690 C   0  0  0  0  0  0  0  0  0  0  0  0
  -12.8100   -0.9040  -24.0870 C   0  0  0  0  0  0  0  0  0  0  0  0
  -13.4080   -0.2080  -25.0820 F   0  0  0  0  0  0  0  0  0  0  0  0
  -11.4270   -0.9280  -24.0450 C   0  0  0  0  0  0  0  0  0  0  0  0
  -10.7530   -0.3140  -25.0660 O   0  0  0  0  0  0  0  0  0  0  0  0
   -9.3940    0.0340  -24.7540 C   0  0  0  0  0  0  0  0  0  0  0  0
   -8.6190   -1.1720  -24.2660 C   0  0  0  0  0  0  0  0  0  0  0  0
   -8.8870   -3.1390  -22.7960 O   0  0  0  0  0  0  0  0  0  0  0  0
   -9.2230   -4.0820  -23.8200 C   0  0  0  0  0  0  0  0  0  0  0  0
   -7.5860   -1.5200  -21.2690 N   0  0  0  0  0  0  0  0  0  0  0  0
   -6.8650   -1.0320  -20.1660 C   0  0  0  0  0  0  0  0  0  0  0  0
   -5.7380   -0.1880  -20.4060 C   0  0  0  0  0  0  0  0  0  0  0  0
   -5.2770    0.1610  -21.7010 C   0  0  0  0  0  0  0  0  0  0  0  0
   -4.2140    1.0070  -21.8640 C   0  0  0  0  0  0  0  0  0  0  0  0
   -3.5600    1.5380  -20.7630 C   0  0  0  0  0  0  0  0  0  0  0  0
   -3.9650    1.2290  -19.4970 C   0  0  0  0  0  0  0  0  0  0  0  0
   -5.0620    0.3600  -19.2830 C   0  0  0  0  0  0  0  0  0  0  0  0
   -5.5520    0.0320  -17.9960 C   0  0  0  0  0  0  0  0  0  0  0  0
   -6.5940   -0.7530  -17.7730 N   0  0  0  0  0  0  0  0  0  0  0  0
   -7.2210   -1.2680  -18.8390 C   0  0  0  0  0  0  0  0  0  0  0  0
  2  1  2  0
  3  2  1  0
  4  3  1  0
  5  4  2  0
  6  5  1  0
  7  6  1  0
  8  6  2  0
  9  8  1  0
 10  9  1  0
 11  9  2  0
 11  4  1  0
 12 11  1  0
 13 12  1  0
 14 13  1  0
 14  3  1  0
  3 15  1  1
 16 15  1  0
 17  2  1  0
 18 17  1  0
 19 18  1  0
 20 19  2  0
 21 20  1  0
 22 21  2  0
 23 22  1  0
 24 19  1  0
 24 23  2  0
 25 24  1  0
 26 25  2  0
 27 26  1  0
 27 18  2  0
M  END
$$$$

     RDKit          3D

 24 26  0  0  0  0  0  0  0  0999 V2000
   -5.2940   -1.5420  -20.1380 C   0  0  0  0  0  0  0  0  0  0  0  0
  -10.4360   -4.0140  -25.0890 C   0  0  0  0  0  0  0  0  0  0  0  0
  -11.7510   -4.2630  -25.4390 C   0  0  0  0  0  0  0  0  0  0  0  0
  -12.7760   -3.7030  -24.6930 C   0  0  0  0  0  0  0  0  0  0  0  0
  -12.4750   -2.9080  -23.5930 C   0  0  0  0  0  0  0  0  0  0  0  0
  -11.1490   -2.6620  -23.2390 C   0  0  0  0  0  0  0  0  0  0  0  0
   -4.0000    0.4950  -19.9440 C   0  0  0  0  0  0  0  0  0  0  0  0
   -5.4830   -2.7440  -21.0210 C   0  0  0  0  0  0  0  0  0  0  0  0
   -5.6840   -0.1170  -18.2530 C   0  0  0  0  0  0  0  0  0  0  0  0
   -5.9750   -1.3100  -18.9990 C   0  0  0  0  0  0  0  0  0  0  0  0
   -8.6670   -2.9600  -23.6410 C   0  0  1  0  0  0  0  0  0  0  0  0
   -6.9570   -1.4830  -22.6130 C   0  0  0  0  0  0  0  0  0  0  0  0
   -8.4450   -1.7890  -22.6750 C   0  0  0  0  0  0  0  0  0  0  0  0
   -7.8970   -4.1880  -23.1420 C   0  0  0  0  0  0  0  0  0  0  0  0
   -6.4170   -3.8480  -22.9790 C   0  0  0  0  0  0  0  0  0  0  0  0
  -10.1120   -3.2180  -23.9890 C   0  0  0  0  0  0  0  0  0  0  0  0
   -4.3390   -0.6660  -20.5860 N   0  0  0  0  0  0  0  0  0  0  0  0
   -4.7040    0.7040  -18.7930 N   0  0  0  0  0  0  0  0  0  0  0  0
   -6.2390   -2.6660  -22.1230 N   0  0  0  0  0  0  0  0  0  0  0  0
   -3.1500    1.2690  -20.3520 O   0  0  0  0  0  0  0  0  0  0  0  0
   -6.2300    0.2130  -17.2230 O   0  0  0  0  0  0  0  0  0  0  0  0
   -4.9050   -3.7580  -20.6390 O   0  0  0  0  0  0  0  0  0  0  0  0
  -13.7610   -2.2080  -22.6410 Cl  0  0  0  0  0  0  0  0  0  0  0  0
  -14.4280   -4.0310  -25.1480 Cl  0  0  0  0  0  0  0  0  0  0  0  0
  3  2  2  0
  4  3  1  0
  5  4  2  0
  6  5  1  0
  8  1  1  0
 10  9  1  0
 10  1  2  0
 13 12  1  0
 13 11  1  0
 14 11  1  0
 15 14  1  0
 16  6  2  0
 11 16  1  1
 16  2  1  0
 17  7  1  0
 17  1  1  0
 18  9  1  0
 18  7  1  0
 19 15  1  0
 19 12  1  0
 19  8  1  0
 20  7  2  0
 21  9  2  0
 22  8  2  0
 23  5  1  0
 24  4  1  0
M  END
$$$$

     RDKit          3D

 14 14  0  0  0  0  0  0  0  0999 V2000
  -13.2500   -3.7580  -24.6640 C   0  0  0  0  0  0  0  0  0  0  0  0
  -12.9670   -1.5060  -23.9010 C   0  0  0  0  0  0  0  0  0  0  0  0
  -12.2490   -0.1620  -23.9880 C   0  0  0  0  0  0  0  0  0  0  0  0
  -11.0220   -0.0640  -24.6280 C   0  0  0  0  0  0  0  0  0  0  0  0
  -10.3830    1.1670  -24.7110 C   0  0  0  0  0  0  0  0  0  0  0  0
  -10.9800    2.2910  -24.1500 C   0  0  0  0  0  0  0  0  0  0  0  0
  -12.2080    2.1890  -23.5100 C   0  0  0  0  0  0  0  0  0  0  0  0
  -12.8400    0.9630  -23.4340 C   0  0  0  0  0  0  0  0  0  0  0  0
   -8.7630    3.9370  -23.2800 N   0  0  0  0  0  0  0  0  0  0  0  0
  -12.7990   -2.4510  -24.9240 O   0  0  0  0  0  0  0  0  0  0  0  0
  -13.6740   -1.7310  -22.9820 O   0  0  0  0  0  0  0  0  0  0  0  0
  -11.0830    4.9860  -23.8750 O   0  0  0  0  0  0  0  0  0  0  0  0
   -9.8620    4.2290  -25.6470 O   0  0  0  0  0  0  0  0  0  0  0  0
  -10.1660    3.9030  -24.2520 S   0  0  2  0  0  0  0  0  0  0  0  0
  3  2  1  0
  4  3  2  0
  5  4  1  0
  6  5  2  0
  7  6  1  0
  8  7  2  0
  8  3  1  0
 10  2  1  0
 10  1  1  0
 11  2  2  0
 14 12  2  0
 14  6  1  0
 14 13  2  0
 14  9  1  1
M  END
$$$$

     RDKit          3D

 26 28  0  0  0  0  0  0  0  0999 V2000
   -6.5170    0.0810  -17.2310 O   0  0  0  0  0  0  0  0  0  0  0  0
   -5.8510   -0.2120  -18.2190 C   0  0  0  0  0  0  0  0  0  0  0  0
   -6.0400   -1.4040  -18.9760 C   0  0  0  0  0  0  0  0  0  0  0  0
   -4.9260    0.6730  -18.7140 N   0  0  0  0  0  0  0  0  0  0  0  0
   -4.2330    0.5020  -19.9050 C   0  0  0  0  0  0  0  0  0  0  0  0
   -4.4690   -0.6450  -20.6810 C   0  0  0  0  0  0  0  0  0  0  0  0
   -3.7960   -0.7940  -21.8970 C   0  0  0  0  0  0  0  0  0  0  0  0
   -2.8680    0.1480  -22.2990 C   0  0  0  0  0  0  0  0  0  0  0  0
   -2.6070    1.2480  -21.5110 C   0  0  0  0  0  0  0  0  0  0  0  0
   -3.2900    1.4420  -20.3210 C   0  0  0  0  0  0  0  0  0  0  0  0
   -5.3950   -1.6380  -20.1480 C   0  0  0  0  0  0  0  0  0  0  0  0
   -5.5280   -2.9700  -20.7980 C   0  0  0  0  0  0  0  0  0  0  0  0
   -4.9040   -3.9240  -20.3620 O   0  0  0  0  0  0  0  0  0  0  0  0
   -6.3700   -3.1180  -21.8880 N   0  0  0  0  0  0  0  0  0  0  0  0
   -6.4910   -4.3870  -22.5870 C   0  0  0  0  0  0  0  0  0  0  0  0
   -7.2480   -2.0380  -22.3380 C   0  0  0  0  0  0  0  0  0  0  0  0
   -8.6710   -2.2920  -21.9250 C   0  0  0  0  0  0  0  0  0  0  0  0
   -9.4180   -2.3860  -23.1460 O   0  0  0  0  0  0  0  0  0  0  0  0
  -10.7110   -1.9550  -23.1220 C   0  0  0  0  0  0  0  0  0  0  0  0
  -10.9530   -0.6800  -23.6740 C   0  0  0  0  0  0  0  0  0  0  0  0
   -9.8380   -0.0110  -24.1050 O   0  0  0  0  0  0  0  0  0  0  0  0
  -10.0200    1.1990  -24.8380 C   0  0  0  0  0  0  0  0  0  0  0  0
  -11.7560   -2.6860  -22.5840 C   0  0  0  0  0  0  0  0  0  0  0  0
  -13.0330   -2.1540  -22.5870 C   0  0  0  0  0  0  0  0  0  0  0  0
  -13.2760   -0.9150  -23.1480 C   0  0  0  0  0  0  0  0  0  0  0  0
  -12.2450   -0.1760  -23.7020 C   0  0  0  0  0  0  0  0  0  0  0  0
  2  1  2  0
  3  2  1  0
  4  2  1  0
  5  4  1  0
  6  5  2  0
  7  6  1  0
  8  7  2  0
  9  8  1  0
 10  9  2  0
 10  5  1  0
 11  3  2  0
 11  6  1  0
 12 11  1  0
 13 12  2  0
 14 12  1  0
 15 14  1  0
 16 14  1  0
 17 16  1  0
 18 17  1  0
 19 18  1  0
 20 19  2  0
 21 20  1  0
 22 21  1  0
 23 19  1  0
 24 23  2  0
 25 24  1  0
 26 25  2  0
 26 20  1  0
M  END
$$$$

     RDKit          3D

 20 22  0  0  0  0  0  0  0  0999 V2000
   -8.7020   -0.1110  -21.5890 O   0  0  0  0  0  0  0  0  0  0  0  0
   -8.3050   -1.2350  -21.8840 C   0  0  0  0  0  0  0  0  0  0  0  0
   -8.7900   -1.9670  -23.1210 C   0  0  0  0  0  0  0  0  0  0  0  0
  -10.2720   -1.7610  -23.3240 C   0  0  0  0  0  0  0  0  0  0  0  0
  -10.7410   -0.7870  -24.1960 C   0  0  0  0  0  0  0  0  0  0  0  0
  -12.0850   -0.4470  -24.2250 C   0  0  0  0  0  0  0  0  0  0  0  0
  -12.9870   -1.0970  -23.3970 C   0  0  0  0  0  0  0  0  0  0  0  0
  -11.1860   -2.4420  -22.5250 C   0  0  0  0  0  0  0  0  0  0  0  0
  -12.5230   -2.1030  -22.5750 C   0  0  0  0  0  0  0  0  0  0  0  0
  -13.6500   -2.9730  -21.5710 Cl  0  0  0  0  0  0  0  0  0  0  0  0
   -7.4240   -1.9320  -21.1100 N   0  0  0  0  0  0  0  0  0  0  0  0
   -6.8620   -1.4060  -19.9510 C   0  0  0  0  0  0  0  0  0  0  0  0
   -5.8270   -0.5020  -20.0110 N   0  0  0  0  0  0  0  0  0  0  0  0
   -5.5590   -0.1400  -18.6930 C   0  0  0  0  0  0  0  0  0  0  0  0
   -6.3710   -0.7790  -17.8510 N   0  0  0  0  0  0  0  0  0  0  0  0
   -7.1640   -1.5620  -18.6390 C   0  0  0  0  0  0  0  0  0  0  0  0
   -5.1170    0.0210  -21.0760 C   0  0  0  0  0  0  0  0  0  0  0  0
   -4.1290    0.9120  -20.8420 C   0  0  0  0  0  0  0  0  0  0  0  0
   -3.8300    1.3080  -19.5150 C   0  0  0  0  0  0  0  0  0  0  0  0
   -4.5240    0.7940  -18.4580 C   0  0  0  0  0  0  0  0  0  0  0  0
  2  1  2  0
  3  2  1  0
  4  3  1  0
  5  4  2  0
  6  5  1  0
  7  6  2  0
  8  4  1  0
  9  8  2  0
  9  7  1  0
 10  9  1  0
 11  2  1  0
 12 11  1  0
 13 12  1  0
 14 13  1  0
 15 14  2  0
 16 15  1  0
 16 12  2  0
 17 13  1  0
 18 17  2  0
 19 18  1  0
 20 14  1  0
 20 19  2  0
M  CHG  1  15   1
M  END
$$$$

     RDKit          3D

 35 37  0  0  0  0  0  0  0  0999 V2000
   -6.1080    0.1380  -18.6800 C   0  0  0  0  0  0  0  0  0  0  0  0
   -7.4060   -4.4930  -19.9150 C   0  0  0  0  0  0  0  0  0  0  0  0
   -8.8040   -2.1670  -22.0870 C   0  0  0  0  0  0  0  0  0  0  0  0
   -9.8150    0.6450  -22.5070 C   0  0  0  0  0  0  0  0  0  0  0  0
  -11.8300    3.1300  -23.2700 C   0  0  0  0  0  0  0  0  0  0  0  0
   -5.3210   -0.7240  -20.7410 C   0  0  0  0  0  0  0  0  0  0  0  0
   -4.6990    0.6440  -20.5020 C   0  0  0  0  0  0  0  0  0  0  0  0
  -10.6590   -0.6840  -24.5140 C   0  0  0  0  0  0  0  0  0  0  0  0
   -6.5440   -0.7720  -19.8190 C   0  0  1  0  0  0  0  0  0  0  0  0
  -10.2310   -1.7720  -22.3290 C   0  0  2  0  0  0  0  0  0  0  0  0
  -11.1970   -2.0850  -24.5490 C   0  0  1  0  0  0  0  0  0  0  0  0
  -10.9210   -2.7500  -23.2340 C   0  0  2  0  0  0  0  0  0  0  0  0
  -12.3640   -2.5520  -23.6950 C   0  0  1  0  0  0  0  0  0  0  0  0
  -13.1980   -1.5480  -22.9630 C   0  0  0  0  0  0  0  0  0  0  0  0
  -13.0830   -3.7530  -24.1800 C   0  0  0  0  0  0  0  0  0  0  0  0
   -8.4670    3.5680  -24.5980 C   0  0  0  0  0  0  0  0  0  0  0  0
   -7.4960    1.3270  -24.2230 C   0  0  0  0  0  0  0  0  0  0  0  0
   -7.6920    2.9600  -22.3730 C   0  0  0  0  0  0  0  0  0  0  0  0
   -6.7630   -2.1720  -19.2870 C   0  0  0  0  0  0  0  0  0  0  0  0
   -7.2840   -3.0760  -20.3950 C   0  0  2  0  0  0  0  0  0  0  0  0
   -9.7640    1.8890  -23.3640 C   0  0  2  0  0  0  0  0  0  0  0  0
  -12.7230    3.9190  -22.3630 C   0  0  2  0  0  0  0  0  0  0  0  0
   -8.3600    2.4160  -23.6250 C   0  0  1  0  0  0  0  0  0  0  0  0
   -6.3760   -5.2680  -19.8710 N   0  0  0  0  0  0  0  0  0  0  0  0
   -5.1150    0.9720  -19.1630 N   0  0  0  0  0  0  0  0  0  0  0  0
  -10.1480   -0.5350  -23.1300 N   0  0  0  0  0  0  0  0  0  0  0  0
   -8.6060   -2.6990  -20.8370 N   0  0  0  0  0  0  0  0  0  0  0  0
  -10.6300    2.8190  -22.6990 N   0  0  0  0  0  0  0  0  0  0  0  0
   -6.5540    0.1250  -17.5440 O   0  0  0  0  0  0  0  0  0  0  0  0
   -7.9300   -2.0120  -22.9240 O   0  0  0  0  0  0  0  0  0  0  0  0
   -9.5890    0.6760  -21.3100 O   0  0  0  0  0  0  0  0  0  0  0  0
  -12.1390    2.8490  -24.4190 O   0  0  0  0  0  0  0  0  0  0  0  0
  -12.7340    3.4860  -21.0790 F   0  0  0  0  0  0  0  0  0  0  0  0
  -14.0150    3.8990  -22.7790 F   0  0  0  0  0  0  0  0  0  0  0  0
  -12.3310    5.2050  -22.3030 F   0  0  0  0  0  0  0  0  0  0  0  0
  7  6  1  0
  9  1  1  0
  9  6  1  0
 10  3  1  6
 11  8  1  1
 12 11  1  0
 12 10  1  1
 13 12  1  0
 13 11  1  0
 13 14  1  1
 15 13  1  0
  9 19  1  1
 20 19  1  1
 20  2  1  0
 21  4  1  0
 22  5  1  0
 23 21  1  0
 23 18  1  1
 23 17  1  0
 23 16  1  0
 24  2  1  0
 25  1  1  0
 25  7  1  0
 26 10  1  0
 26  8  1  0
 26  4  1  0
 27  3  1  0
 27 20  1  0
 28  5  1  0
 21 28  1  1
 29  1  2  0
 30  3  2  0
 31  4  2  0
 32  5  2  0
 22 33  1  1
 34 22  1  0
 35 22  1  0
M  END
$$$$

     RDKit          3D

 27 31  0  0  0  0  0  0  0  0999 V2000
   -8.8550    0.2650  -21.4110 O   0  0  0  0  0  0  0  0  0  0  0  0
   -8.4220   -0.7690  -21.8830 C   0  0  0  0  0  0  0  0  0  0  0  0
   -8.9040   -1.4560  -23.1800 C   0  0  2  0  0  0  0  0  0  0  0  0
   -8.3070   -0.7060  -24.3900 C   0  0  0  0  0  0  0  0  0  0  0  0
   -9.1570    0.4790  -24.7940 C   0  0  0  0  0  0  0  0  0  0  0  0
  -10.4930    0.0750  -25.1080 O   0  0  0  0  0  0  0  0  0  0  0  0
  -10.4270   -1.4200  -23.1900 C   0  0  0  0  0  0  0  0  0  0  0  0
  -11.1190   -0.6020  -24.0920 C   0  0  0  0  0  0  0  0  0  0  0  0
  -12.4920   -0.4500  -24.0360 C   0  0  0  0  0  0  0  0  0  0  0  0
  -13.2110   -1.1570  -23.0940 C   0  0  0  0  0  0  0  0  0  0  0  0
  -11.1720   -2.1450  -22.2610 C   0  0  0  0  0  0  0  0  0  0  0  0
  -12.5500   -2.0170  -22.2450 C   0  0  0  0  0  0  0  0  0  0  0  0
  -13.4820   -3.0400  -21.1900 Cl  0  0  0  0  0  0  0  0  0  0  0  0
   -7.4590   -1.6010  -21.3310 N   0  0  0  0  0  0  0  0  0  0  0  0
   -7.3730   -2.8150  -22.0230 C   0  0  0  0  0  0  0  0  0  0  0  0
   -6.5630   -3.7010  -21.7990 O   0  0  0  0  0  0  0  0  0  0  0  0
   -8.2840   -2.7680  -23.0240 N   0  0  0  0  0  0  0  0  0  0  0  0
   -6.5850   -1.2010  -20.2590 C   0  0  0  0  0  0  0  0  0  0  0  0
   -5.4300   -0.4240  -20.5610 C   0  0  0  0  0  0  0  0  0  0  0  0
   -4.8830   -0.2730  -21.8610 C   0  0  0  0  0  0  0  0  0  0  0  0
   -3.7460    0.4550  -22.0670 C   0  0  0  0  0  0  0  0  0  0  0  0
   -3.1020    1.0730  -21.0060 C   0  0  0  0  0  0  0  0  0  0  0  0
   -3.5990    0.9780  -19.7370 C   0  0  0  0  0  0  0  0  0  0  0  0
   -4.7720    0.2260  -19.4790 C   0  0  0  0  0  0  0  0  0  0  0  0
   -5.3230    0.0670  -18.1820 C   0  0  0  0  0  0  0  0  0  0  0  0
   -6.4040   -0.6520  -17.9120 N   0  0  0  0  0  0  0  0  0  0  0  0
   -7.0080   -1.2680  -18.9370 C   0  0  0  0  0  0  0  0  0  0  0  0
  2  1  2  0
  3  2  1  0
  3  4  1  6
  5  4  1  0
  6  5  1  0
  7  3  1  0
  8  7  2  0
  8  6  1  0
  9  8  1  0
 10  9  2  0
 11  7  1  0
 12 11  2  0
 12 10  1  0
 13 12  1  0
 14  2  1  0
 15 14  1  0
 16 15  2  0
 17 15  1  0
 17  3  1  0
 18 14  1  0
 19 18  1  0
 20 19  2  0
 21 20  1  0
 22 21  2  0
 23 22  1  0
 24 23  2  0
 24 19  1  0
 25 24  1  0
 26 25  2  0
 27 26  1  0
 27 18  2  0
M  END
$$$$

     RDKit          3D

 20 22  0  0  0  0  0  0  0  0999 V2000
   -6.7760   -3.9290  -21.5090 N   0  0  0  0  0  0  0  0  0  0  0  0
  -12.0480   -2.0390  -22.7590 C   0  0  0  0  0  0  0  0  0  0  0  0
   -6.7270   -6.1070  -24.4880 C   0  0  0  0  0  0  0  0  0  0  0  0
   -7.9350   -3.0690  -21.8070 C   0  0  0  0  0  0  0  0  0  0  0  0
  -12.1910   -1.0180  -23.6920 C   0  0  0  0  0  0  0  0  0  0  0  0
  -10.8120   -2.6650  -22.6520 C   0  0  0  0  0  0  0  0  0  0  0  0
   -6.2990   -4.2450  -20.2850 C   0  0  0  0  0  0  0  0  0  0  0  0
   -9.7430   -2.3060  -23.4670 C   0  0  0  0  0  0  0  0  0  0  0  0
   -9.9260   -1.3050  -24.4110 C   0  0  0  0  0  0  0  0  0  0  0  0
   -6.9910   -4.9470  -23.7610 C   0  0  0  0  0  0  0  0  0  0  0  0
   -8.7630   -5.8380  -25.7090 C   0  0  0  0  0  0  0  0  0  0  0  0
   -7.1250   -3.8370  -19.0930 C   0  0  0  0  0  0  0  0  0  0  0  0
   -6.0570   -4.3940  -22.7160 C   0  0  0  0  0  0  0  0  0  0  0  0
   -7.6080   -6.5410  -25.4630 C   0  0  0  0  0  0  0  0  0  0  0  0
   -9.0380   -4.6860  -24.9900 C   0  0  0  0  0  0  0  0  0  0  0  0
  -13.2240   -2.5130  -21.9440 C   0  0  0  0  0  0  0  0  0  0  0  0
   -5.2240   -4.7850  -20.1390 O   0  0  0  0  0  0  0  0  0  0  0  0
   -8.3670   -2.9280  -23.2750 C   0  0  2  0  0  0  0  0  0  0  0  0
  -11.1420   -0.6580  -24.5210 C   0  0  0  0  0  0  0  0  0  0  0  0
   -8.1510   -4.2230  -24.0210 C   0  0  0  0  0  0  0  0  0  0  0  0
  4  1  1  0
  5  2  2  0
  6  2  1  0
  7  1  1  0
  8  6  2  0
  9  8  1  0
 10  3  2  0
 12  7  1  0
 13 10  1  0
 13  1  1  0
 14 11  2  0
 14  3  1  0
 15 11  1  0
 16  2  1  0
 17  7  2  0
 18  8  1  1
 18  4  1  0
 19  5  1  0
 19  9  2  0
 20 18  1  0
 20 15  2  0
 20 10  1  0
M  END
$$$$

     RDKit          3D

 31 35  0  0  0  0  0  0  0  0999 V2000
  -13.1010   -3.2500  -25.1600 S   0  0  0  0  0  0  0  0  0  0  0  0
   -6.9460   -1.2160  -20.0990 N   0  0  0  0  0  0  0  0  0  0  0  0
   -9.2260   -1.4360  -22.9900 N   0  0  0  0  0  0  0  0  0  0  0  0
   -6.3650   -0.5490  -18.1240 N   0  0  0  0  0  0  0  0  0  0  0  0
   -7.7630   -1.9300  -21.0620 C   0  0  0  0  0  0  0  0  0  0  0  0
  -13.3490   -3.1240  -23.4680 C   0  0  0  0  0  0  0  0  0  0  0  0
   -5.7530   -7.0010  -27.5120 C   0  0  1  0  0  0  0  0  0  0  0  0
   -6.1150   -4.6600  -27.8590 O   0  0  0  0  0  0  0  0  0  0  0  0
  -10.3980   -0.7590  -23.5320 C   0  0  0  0  0  0  0  0  0  0  0  0
   -5.4640   -0.0410  -19.0310 C   0  0  0  0  0  0  0  0  0  0  0  0
   -5.0890   -0.1370  -21.4310 C   0  0  0  0  0  0  0  0  0  0  0  0
   -7.6670   -4.5740  -25.3510 C   0  0  0  0  0  0  0  0  0  0  0  0
   -3.9610    0.6540  -21.2540 C   0  0  0  0  0  0  0  0  0  0  0  0
   -3.5920    1.1010  -19.9860 C   0  0  0  0  0  0  0  0  0  0  0  0
  -12.4420   -2.2560  -22.9030 C   0  0  0  0  0  0  0  0  0  0  0  0
   -8.6610   -2.5120  -23.7520 C   0  0  0  0  0  0  0  0  0  0  0  0
   -4.3450   -7.2570  -27.0410 C   0  0  0  0  0  0  0  0  0  0  0  0
   -6.3570   -5.6580  -27.1850 C   0  0  0  0  0  0  0  0  0  0  0  0
   -9.0440   -3.8320  -23.5170 C   0  0  0  0  0  0  0  0  0  0  0  0
  -11.5400   -1.6930  -23.8510 C   0  0  0  0  0  0  0  0  0  0  0  0
  -11.7970   -2.1450  -25.1140 C   0  0  0  0  0  0  0  0  0  0  0  0
   -4.6000   -7.0230  -28.4810 C   0  0  0  0  0  0  0  0  0  0  0  0
   -7.7770   -2.2330  -24.7920 C   0  0  0  0  0  0  0  0  0  0  0  0
   -8.7230   -0.9940  -21.7970 C   0  0  0  0  0  0  0  0  0  0  0  0
   -7.2450   -1.2530  -18.7750 N   0  0  0  0  0  0  0  0  0  0  0  0
   -9.0250    0.0900  -21.3210 O   0  0  0  0  0  0  0  0  0  0  0  0
   -5.8260   -0.4720  -20.3030 C   0  0  0  0  0  0  0  0  0  0  0  0
   -4.3380    0.7610  -18.8650 C   0  0  0  0  0  0  0  0  0  0  0  0
   -7.2860   -3.2530  -25.5860 C   0  0  0  0  0  0  0  0  0  0  0  0
   -8.5530   -4.8520  -24.3140 C   0  0  0  0  0  0  0  0  0  0  0  0
   -7.1810   -5.6650  -26.1100 N   0  0  0  0  0  0  0  0  0  0  0  0
  5  2  1  0
  6  1  1  0
  9  3  1  0
 10  4  1  0
 13 11  2  0
 14 13  1  0
 15  6  2  0
 16  3  1  0
 17  7  1  0
  7 18  1  1
 18  8  2  0
 19 16  2  0
 20 15  1  0
 20  9  1  0
 21 20  2  0
 21  1  1  0
 22  7  1  0
 22 17  1  0
 23 16  1  0
 24  3  1  0
 24  5  1  0
 25  4  2  0
 25  2  1  0
 26 24  2  0
 27 10  2  0
 27  2  1  0
 27 11  1  0
 28 10  1  0
 28 14  2  0
 29 23  2  0
 29 12  1  0
 30 19  1  0
 30 12  2  0
 31 18  1  0
 31 12  1  0
M  END
$$$$

     RDKit          3D

 30 34  0  0  0  0  0  0  0  0999 V2000
   -8.4960    0.0140  -21.5420 O   0  0  0  0  0  0  0  0  0  0  0  0
   -8.2000   -1.1760  -21.4660 C   0  0  0  0  0  0  0  0  0  0  0  0
   -7.4750   -1.6910  -20.4560 N   0  0  0  0  0  0  0  0  0  0  0  0
   -6.4790   -1.1120  -19.6430 C   0  0  0  0  0  0  0  0  0  0  0  0
   -5.5360   -0.1600  -20.1580 C   0  0  0  0  0  0  0  0  0  0  0  0
   -5.2390   -0.0080  -21.5400 C   0  0  0  0  0  0  0  0  0  0  0  0
   -4.2360    0.8210  -21.9560 C   0  0  0  0  0  0  0  0  0  0  0  0
   -3.4860    1.5440  -21.0390 C   0  0  0  0  0  0  0  0  0  0  0  0
   -3.7450    1.4460  -19.7020 C   0  0  0  0  0  0  0  0  0  0  0  0
   -4.7670    0.5900  -19.2240 C   0  0  0  0  0  0  0  0  0  0  0  0
   -5.0080    0.3730  -17.8490 C   0  0  0  0  0  0  0  0  0  0  0  0
   -5.8740   -0.5050  -17.3730 N   0  0  0  0  0  0  0  0  0  0  0  0
   -6.5660   -1.2290  -18.2570 C   0  0  0  0  0  0  0  0  0  0  0  0
   -8.7740   -2.2210  -22.4270 C   0  0  1  0  0  0  0  0  0  0  0  0
  -10.1930   -1.8810  -22.8380 C   0  0  0  0  0  0  0  0  0  0  0  0
  -10.4140   -0.9690  -23.8780 C   0  0  0  0  0  0  0  0  0  0  0  0
  -11.7090   -0.5880  -24.2240 C   0  0  0  0  0  0  0  0  0  0  0  0
  -12.7870   -1.1250  -23.5410 C   0  0  0  0  0  0  0  0  0  0  0  0
  -11.2850   -2.4340  -22.1800 C   0  0  0  0  0  0  0  0  0  0  0  0
  -12.5620   -2.0480  -22.5360 C   0  0  0  0  0  0  0  0  0  0  0  0
  -13.9200   -2.7300  -21.6790 Cl  0  0  0  0  0  0  0  0  0  0  0  0
   -7.9260   -2.3320  -23.7100 C   0  0  0  0  0  0  0  0  0  0  0  0
   -7.9470   -1.0190  -24.4960 C   0  0  0  0  0  0  0  0  0  0  0  0
   -9.2960   -0.4530  -24.6260 N   0  0  0  0  0  0  0  0  0  0  0  0
   -9.4160    0.7160  -25.4740 C   0  0  0  0  0  0  0  0  0  0  0  0
   -9.5090    0.3390  -26.9160 C   0  0  0  0  0  0  0  0  0  0  0  0
  -10.0820   -0.8170  -27.3570 N   0  0  0  0  0  0  0  0  0  0  0  0
  -10.0130   -0.8110  -28.7200 C   0  0  0  0  0  0  0  0  0  0  0  0
   -9.3920    0.3630  -29.0670 C   0  0  0  0  0  0  0  0  0  0  0  0
   -9.0740    1.0840  -27.9380 N   0  0  0  0  0  0  0  0  0  0  0  0
  2  1  2  0
  3  2  1  0
  4  3  1  0
  5  4  1  0
  6  5  2  0
  7  6  1  0
  8  7  2  0
  9  8  1  0
 10  5  1  0
 10  9  2  0
 11 10  1  0
 12 11  2  0
 13 12  1  0
 13  4  2  0
 14  2  1  1
 15 14  1  0
 16 15  1  0
 17 16  2  0
 18 17  1  0
 19 15  2  0
 20 19  1  0
 20 18  2  0
 21 20  1  0
 22 14  1  0
 23 22  1  0
 24 23  1  0
 24 16  1  0
 25 24  1  0
 26 25  1  0
 27 26  2  0
 28 27  1  0
 29 28  2  0
 30 29  1  0
 30 26  1  0
M  END
$$$$

     RDKit          3D

 20 22  0  0  0  0  0  0  0  0999 V2000
   -8.7520   -0.3230  -21.6080 O   0  0  0  0  0  0  0  0  0  0  0  0
   -8.3470   -1.4630  -21.8030 C   0  0  0  0  0  0  0  0  0  0  0  0
   -8.8670   -2.3030  -22.9530 C   0  0  0  0  0  0  0  0  0  0  0  0
  -10.2990   -1.9550  -23.2840 C   0  0  0  0  0  0  0  0  0  0  0  0
  -10.6040   -1.0940  -24.3300 C   0  0  0  0  0  0  0  0  0  0  0  0
  -11.9130   -0.7310  -24.5880 C   0  0  0  0  0  0  0  0  0  0  0  0
  -12.9460   -1.2330  -23.8070 C   0  0  0  0  0  0  0  0  0  0  0  0
  -11.3350   -2.4770  -22.5170 C   0  0  0  0  0  0  0  0  0  0  0  0
  -12.6370   -2.1250  -22.8000 C   0  0  0  0  0  0  0  0  0  0  0  0
  -13.9250   -2.8950  -21.9200 Cl  0  0  0  0  0  0  0  0  0  0  0  0
   -7.4270   -2.0700  -21.0310 N   0  0  0  0  0  0  0  0  0  0  0  0
   -6.8000   -1.4430  -19.9690 N   0  0  0  0  0  0  0  0  0  0  0  0
   -5.7090   -0.7000  -20.0800 C   0  0  0  0  0  0  0  0  0  0  0  0
   -5.5740   -0.1620  -18.8030 C   0  0  0  0  0  0  0  0  0  0  0  0
   -6.5920   -0.6460  -18.0050 N   0  0  0  0  0  0  0  0  0  0  0  0
   -7.3290   -1.4420  -18.7160 N   0  0  0  0  0  0  0  0  0  0  0  0
   -4.8190   -0.3970  -21.1000 C   0  0  0  0  0  0  0  0  0  0  0  0
   -3.7890    0.4870  -20.8220 C   0  0  0  0  0  0  0  0  0  0  0  0
   -3.6410    1.0360  -19.5490 C   0  0  0  0  0  0  0  0  0  0  0  0
   -4.5300    0.7160  -18.5270 C   0  0  0  0  0  0  0  0  0  0  0  0
  2  1  2  0
  3  2  1  0
  4  3  1  0
  5  4  2  0
  6  5  1  0
  7  6  2  0
  8  4  1  0
  9  8  2  0
  9  7  1  0
 10  9  1  0
 11  2  1  0
 12 11  1  0
 13 12  1  0
 14 13  2  0
 15 14  1  0
 16 15  2  0
 16 12  1  0
 17 13  1  0
 18 17  2  0
 19 18  1  0
 20 14  1  0
 20 19  2  0
M  END
$$$$

     RDKit          3D

 17 18  0  0  0  0  0  0  0  0999 V2000
  -11.4300   -0.3600  -24.0990 N   0  0  0  0  0  0  0  0  0  0  0  0
  -10.6050   -1.0300  -23.6970 C   0  0  0  0  0  0  0  0  0  0  0  0
   -9.5180   -1.8300  -23.1060 C   0  0  1  0  0  0  0  0  0  0  0  0
  -10.1100   -3.1620  -22.6320 C   0  0  0  0  0  0  0  0  0  0  0  0
  -10.0390   -4.0090  -23.7740 O   0  0  0  0  0  0  0  0  0  0  0  0
   -8.7750   -3.7350  -24.3790 C   0  0  0  0  0  0  0  0  0  0  0  0
   -8.5320   -2.2430  -24.2320 C   0  0  0  0  0  0  0  0  0  0  0  0
   -8.9470   -0.9780  -21.9550 C   0  0  0  0  0  0  0  0  0  0  0  0
   -9.6980   -0.2510  -21.3310 O   0  0  0  0  0  0  0  0  0  0  0  0
   -7.6170   -0.9270  -21.8220 N   0  0  0  0  0  0  0  0  0  0  0  0
   -6.8520   -0.7330  -20.6490 C   0  0  0  0  0  0  0  0  0  0  0  0
   -5.5030   -0.3820  -20.7820 C   0  0  0  0  0  0  0  0  0  0  0  0
   -4.8740   -0.1430  -22.1310 C   0  0  0  0  0  0  0  0  0  0  0  0
   -7.3650   -0.9180  -19.3600 C   0  0  0  0  0  0  0  0  0  0  0  0
   -6.6610   -0.7120  -18.2420 N   0  0  0  0  0  0  0  0  0  0  0  0
   -5.3940   -0.3130  -18.3860 C   0  0  0  0  0  0  0  0  0  0  0  0
   -4.7810   -0.1520  -19.6140 C   0  0  0  0  0  0  0  0  0  0  0  0
  2  1  3  0
  3  2  1  6
  4  3  1  0
  5  4  1  0
  6  5  1  0
  7  6  1  0
  7  3  1  0
  8  3  1  0
  9  8  2  0
 10  8  1  0
 11 10  1  0
 12 11  2  0
 13 12  1  0
 14 11  1  0
 15 14  2  0
 16 15  1  0
 17 12  1  0
 17 16  2  0
M  END
$$$$

     RDKit          3D

 21 23  0  0  0  0  0  0  0  0999 V2000
   -9.1240   -0.2710  -21.2070 O   0  0  0  0  0  0  0  0  0  0  0  0
   -8.5800   -1.3250  -21.5340 C   0  0  0  0  0  0  0  0  0  0  0  0
   -9.2330   -2.3010  -22.4950 C   0  0  0  0  0  0  0  0  0  0  0  0
  -10.6630   -1.9550  -22.8320 C   0  0  0  0  0  0  0  0  0  0  0  0
  -11.7340   -2.5380  -22.1630 C   0  0  0  0  0  0  0  0  0  0  0  0
  -13.0190   -2.1320  -22.4840 C   0  0  0  0  0  0  0  0  0  0  0  0
  -13.2170   -1.1810  -23.4740 C   0  0  0  0  0  0  0  0  0  0  0  0
  -10.8330   -1.0400  -23.8040 N   0  0  0  0  0  0  0  0  0  0  0  0
  -12.0820   -0.7050  -24.1040 C   0  0  0  0  0  0  0  0  0  0  0  0
  -12.2610    0.3420  -25.4810 Cl  0  0  0  0  0  0  0  0  0  0  0  0
   -7.3780   -1.7220  -21.0660 N   0  0  0  0  0  0  0  0  0  0  0  0
   -6.6220   -1.1180  -20.0470 C   0  0  0  0  0  0  0  0  0  0  0  0
   -5.5140   -0.2900  -20.4030 C   0  0  0  0  0  0  0  0  0  0  0  0
   -5.0510   -0.1130  -21.7320 C   0  0  0  0  0  0  0  0  0  0  0  0
   -4.0080    0.7270  -22.0060 C   0  0  0  0  0  0  0  0  0  0  0  0
   -3.3690    1.4170  -20.9870 C   0  0  0  0  0  0  0  0  0  0  0  0
   -3.7660    1.2710  -19.6890 C   0  0  0  0  0  0  0  0  0  0  0  0
   -4.8480    0.4150  -19.3610 C   0  0  0  0  0  0  0  0  0  0  0  0
   -5.3180    0.2330  -18.0390 C   0  0  0  0  0  0  0  0  0  0  0  0
   -6.3470   -0.5390  -17.7120 N   0  0  0  0  0  0  0  0  0  0  0  0
   -6.9710   -1.1950  -18.7010 C   0  0  0  0  0  0  0  0  0  0  0  0
  2  1  2  0
  3  2  1  0
  4  3  1  0
  5  4  2  0
  6  5  1  0
  7  6  2  0
  8  4  1  0
  9  7  1  0
  9  8  2  0
 10  9  1  0
 11  2  1  0
 12 11  1  0
 13 12  1  0
 14 13  2  0
 15 14  1  0
 16 15  2  0
 17 16  1  0
 18 13  1  0
 18 17  2  0
 19 18  1  0
 20 19  2  0
 21 20  1  0
 21 12  2  0
M  END
$$$$

     RDKit          3D

 29 32  0  0  0  0  0  0  0  0999 V2000
  -13.8000   -2.8810  -21.7080 Cl  0  0  0  0  0  0  0  0  0  0  0  0
  -12.5790   -2.0630  -22.6400 C   0  0  0  0  0  0  0  0  0  0  0  0
  -11.2500   -2.3620  -22.4170 C   0  0  0  0  0  0  0  0  0  0  0  0
  -12.9620   -1.1100  -23.5580 C   0  0  0  0  0  0  0  0  0  0  0  0
  -11.9870   -0.4460  -24.2780 C   0  0  0  0  0  0  0  0  0  0  0  0
  -10.6330   -0.7310  -24.0900 C   0  0  0  0  0  0  0  0  0  0  0  0
   -9.6160   -0.0830  -25.0020 C   0  0  0  0  0  0  0  0  0  0  0  0
   -8.2510   -0.2380  -24.4910 N   0  0  0  0  0  0  0  0  0  0  0  0
   -7.2440    0.6130  -24.8330 C   0  0  0  0  0  0  0  0  0  0  0  0
   -6.1700    0.2180  -25.2500 O   0  0  0  0  0  0  0  0  0  0  0  0
   -7.5130    1.9360  -24.6900 N   0  0  0  0  0  0  0  0  0  0  0  0
   -7.6030    2.8310  -25.8470 C   0  0  0  0  0  0  0  0  0  0  0  0
   -7.7300    2.5540  -23.3860 C   0  0  0  0  0  0  0  0  0  0  0  0
  -10.2610   -1.6840  -23.1300 C   0  0  0  0  0  0  0  0  0  0  0  0
   -8.7920   -1.9660  -22.8660 C   0  0  1  0  0  0  0  0  0  0  0  0
   -7.9570   -1.6180  -24.0980 C   0  0  0  0  0  0  0  0  0  0  0  0
   -8.3060   -1.1140  -21.6900 C   0  0  0  0  0  0  0  0  0  0  0  0
   -8.8690   -0.0700  -21.3610 O   0  0  0  0  0  0  0  0  0  0  0  0
   -7.1810   -1.5740  -21.0850 N   0  0  0  0  0  0  0  0  0  0  0  0
   -6.4670   -0.9770  -20.0230 C   0  0  0  0  0  0  0  0  0  0  0  0
   -5.3870   -0.0890  -20.3290 C   0  0  0  0  0  0  0  0  0  0  0  0
   -4.9300    0.1740  -21.6470 C   0  0  0  0  0  0  0  0  0  0  0  0
   -3.9120    1.0570  -21.8750 C   0  0  0  0  0  0  0  0  0  0  0  0
   -3.2960    1.7200  -20.8170 C   0  0  0  0  0  0  0  0  0  0  0  0
   -3.6980    1.4990  -19.5290 C   0  0  0  0  0  0  0  0  0  0  0  0
   -4.7500    0.5880  -19.2480 C   0  0  0  0  0  0  0  0  0  0  0  0
   -5.2150    0.3230  -17.9390 C   0  0  0  0  0  0  0  0  0  0  0  0
   -6.2060   -0.5120  -17.6550 N   0  0  0  0  0  0  0  0  0  0  0  0
   -6.8070   -1.1340  -18.6790 C   0  0  0  0  0  0  0  0  0  0  0  0
  2  1  1  0
  3  2  2  0
  4  2  1  0
  5  4  2  0
  6  5  1  0
  7  6  1  0
  8  7  1  0
  9  8  1  0
 10  9  2  0
 11  9  1  0
 12 11  1  0
 13 11  1  0
 14  3  1  0
 14  6  2  0
 15 14  1  0
 16 15  1  0
 16  8  1  0
 15 17  1  1
 18 17  2  0
 19 17  1  0
 20 19  1  0
 21 20  1  0
 22 21  2  0
 23 22  1  0
 24 23  2  0
 25 24  1  0
 26 25  2  0
 26 21  1  0
 27 26  1  0
 28 27  2  0
 29 28  1  0
 29 20  2  0
M  END
$$$$

     RDKit          3D

 25 28  0  0  0  0  0  0  0  0999 V2000
   -9.0150   -0.0220  -21.2690 O   0  0  0  0  0  0  0  0  0  0  0  0
   -8.4620   -1.0730  -21.6100 C   0  0  0  0  0  0  0  0  0  0  0  0
   -9.0290   -1.9730  -22.7080 C   0  0  2  0  0  0  0  0  0  0  0  0
   -8.2790   -1.6510  -24.0090 C   0  0  0  0  0  0  0  0  0  0  0  0
   -8.6610   -0.3360  -24.6280 C   0  0  0  0  0  0  0  0  0  0  0  0
   -7.8430    0.3730  -25.2010 O   0  0  0  0  0  0  0  0  0  0  0  0
   -9.9560    0.0240  -24.5210 N   0  0  0  0  0  0  0  0  0  0  0  0
  -10.5030   -1.7290  -22.9460 C   0  0  0  0  0  0  0  0  0  0  0  0
  -10.9100   -0.6710  -23.7750 C   0  0  0  0  0  0  0  0  0  0  0  0
  -12.2650   -0.3650  -23.9050 C   0  0  0  0  0  0  0  0  0  0  0  0
  -13.2120   -1.1020  -23.2120 C   0  0  0  0  0  0  0  0  0  0  0  0
  -11.4680   -2.4690  -22.2700 C   0  0  0  0  0  0  0  0  0  0  0  0
  -12.7990   -2.1350  -22.3970 C   0  0  0  0  0  0  0  0  0  0  0  0
  -13.9740   -2.9850  -21.4360 Cl  0  0  0  0  0  0  0  0  0  0  0  0
   -7.3220   -1.5270  -21.0500 N   0  0  0  0  0  0  0  0  0  0  0  0
   -6.6170   -0.9430  -19.9890 C   0  0  0  0  0  0  0  0  0  0  0  0
   -5.5530   -0.0450  -20.2920 C   0  0  0  0  0  0  0  0  0  0  0  0
   -5.0890    0.2140  -21.6090 C   0  0  0  0  0  0  0  0  0  0  0  0
   -4.0310    1.0530  -21.8280 C   0  0  0  0  0  0  0  0  0  0  0  0
   -3.3850    1.6710  -20.7660 C   0  0  0  0  0  0  0  0  0  0  0  0
   -3.8060    1.4650  -19.4810 C   0  0  0  0  0  0  0  0  0  0  0  0
   -4.9000    0.6060  -19.2100 C   0  0  0  0  0  0  0  0  0  0  0  0
   -5.3590    0.3250  -17.9000 C   0  0  0  0  0  0  0  0  0  0  0  0
   -6.3480   -0.5140  -17.6200 N   0  0  0  0  0  0  0  0  0  0  0  0
   -6.9500   -1.1280  -18.6490 C   0  0  0  0  0  0  0  0  0  0  0  0
  2  1  2  0
  3  2  1  1
  4  3  1  0
  5  4  1  0
  6  5  2  0
  7  5  1  0
  8  3  1  0
  9  8  2  0
  9  7  1  0
 10  9  1  0
 11 10  2  0
 12  8  1  0
 13 12  2  0
 13 11  1  0
 14 13  1  0
 15  2  1  0
 16 15  1  0
 17 16  1  0
 18 17  2  0
 19 18  1  0
 20 19  2  0
 21 20  1  0
 22 17  1  0
 22 21  2  0
 23 22  1  0
 24 23  2  0
 25 24  1  0
 25 16  2  0
M  END
$$$$

     RDKit          3D

 26 29  0  0  0  0  0  0  0  0999 V2000
   -5.3760   -3.6360  -21.0460 O   0  0  0  0  0  0  0  0  0  0  0  0
   -5.9430   -2.5610  -21.0220 C   0  0  0  0  0  0  0  0  0  0  0  0
   -5.5770   -1.5450  -19.9810 C   0  0  0  0  0  0  0  0  0  0  0  0
   -4.7020   -0.4620  -20.2720 C   0  0  0  0  0  0  0  0  0  0  0  0
   -4.0660   -0.2620  -21.5280 C   0  0  0  0  0  0  0  0  0  0  0  0
   -3.2070    0.7830  -21.7230 C   0  0  0  0  0  0  0  0  0  0  0  0
   -2.9380    1.6790  -20.6970 C   0  0  0  0  0  0  0  0  0  0  0  0
   -3.5320    1.5360  -19.4720 C   0  0  0  0  0  0  0  0  0  0  0  0
   -4.4270    0.4650  -19.2260 C   0  0  0  0  0  0  0  0  0  0  0  0
   -5.0420    0.2390  -17.9680 C   0  0  0  0  0  0  0  0  0  0  0  0
   -5.8590   -0.7750  -17.7030 N   0  0  0  0  0  0  0  0  0  0  0  0
   -6.1170   -1.6350  -18.7000 C   0  0  0  0  0  0  0  0  0  0  0  0
   -6.8930   -2.2260  -21.9160 N   0  0  0  0  0  0  0  0  0  0  0  0
   -7.4670   -3.1570  -22.8980 C   0  0  0  0  0  0  0  0  0  0  0  0
   -8.9840   -3.2030  -22.7510 C   0  0  0  0  0  0  0  0  0  0  0  0
   -7.4320   -0.8760  -22.0120 C   0  0  0  0  0  0  0  0  0  0  0  0
   -8.9340   -0.8090  -22.0200 C   0  0  0  0  0  0  0  0  0  0  0  0
   -9.4990    0.1650  -21.5320 O   0  0  0  0  0  0  0  0  0  0  0  0
   -9.5920   -1.8690  -22.5720 N   0  0  0  0  0  0  0  0  0  0  0  0
  -10.9600   -1.7710  -22.9520 C   0  0  0  0  0  0  0  0  0  0  0  0
  -11.8890   -2.5890  -22.3200 C   0  0  0  0  0  0  0  0  0  0  0  0
  -13.2320   -2.3690  -22.5460 C   0  0  0  0  0  0  0  0  0  0  0  0
  -14.3860   -3.1740  -21.5280 Cl  0  0  0  0  0  0  0  0  0  0  0  0
  -11.3850   -0.8010  -23.8640 C   0  0  0  0  0  0  0  0  0  0  0  0
  -12.7400   -0.6390  -24.1120 C   0  0  0  0  0  0  0  0  0  0  0  0
  -13.6760   -1.4210  -23.4480 C   0  0  0  0  0  0  0  0  0  0  0  0
  2  1  2  0
  3  2  1  0
  4  3  1  0
  5  4  2  0
  6  5  1  0
  7  6  2  0
  8  7  1  0
  9  8  2  0
  9  4  1  0
 10  9  1  0
 11 10  2  0
 12 11  1  0
 12  3  2  0
 13  2  1  0
 14 13  1  0
 15 14  1  0
 16 13  1  0
 17 16  1  0
 18 17  2  0
 19 17  1  0
 19 15  1  0
 20 19  1  0
 21 20  2  0
 22 21  1  0
 23 22  1  0
 24 20  1  0
 25 24  2  0
 26 25  1  0
 26 22  2  0
M  END
$$$$

     RDKit          3D

 26 28  0  0  0  0  0  0  0  0999 V2000
  -11.6570   -0.6710  -23.9300 O   0  0  0  0  0  0  0  0  0  0  0  0
  -10.7990   -1.2200  -24.9310 S   0  0  2  0  0  0  0  0  0  0  0  0
  -10.5030   -0.4610  -26.1070 O   0  0  0  0  0  0  0  0  0  0  0  0
  -11.5100   -2.7640  -25.4580 C   0  0  0  0  0  0  0  0  0  0  0  0
  -10.7210   -3.8530  -25.9340 C   0  0  0  0  0  0  0  0  0  0  0  0
   -9.3600   -3.7990  -25.8290 N   0  0  0  0  0  0  0  0  0  0  0  0
   -8.6740   -4.8700  -26.1920 C   0  0  0  0  0  0  0  0  0  0  0  0
   -9.2440   -6.0340  -26.6740 C   0  0  0  0  0  0  0  0  0  0  0  0
  -10.5990   -6.0990  -26.7930 C   0  0  0  0  0  0  0  0  0  0  0  0
  -11.4020   -4.9950  -26.4230 C   0  0  0  0  0  0  0  0  0  0  0  0
  -12.8170   -5.0030  -26.4340 C   0  0  0  0  0  0  0  0  0  0  0  0
  -13.5240   -3.9500  -25.9450 C   0  0  0  0  0  0  0  0  0  0  0  0
  -12.8770   -2.8340  -25.4470 C   0  0  0  0  0  0  0  0  0  0  0  0
   -9.3710   -1.5300  -24.2130 N   0  0  0  0  0  0  0  0  0  0  0  0
   -8.1560   -1.4370  -25.0300 C   0  0  0  0  0  0  0  0  0  0  0  0
   -9.2630   -2.1810  -22.8930 C   0  0  0  0  0  0  0  0  0  0  0  0
   -8.7150   -1.2640  -21.8140 C   0  0  0  0  0  0  0  0  0  0  0  0
   -9.3290   -0.2650  -21.4420 O   0  0  0  0  0  0  0  0  0  0  0  0
   -7.5100   -1.6390  -21.3350 N   0  0  0  0  0  0  0  0  0  0  0  0
   -6.7760   -1.0280  -20.2910 C   0  0  0  0  0  0  0  0  0  0  0  0
   -5.5530   -0.3920  -20.5750 C   0  0  0  0  0  0  0  0  0  0  0  0
   -5.0120   -0.2920  -21.9780 C   0  0  0  0  0  0  0  0  0  0  0  0
   -4.8580    0.1650  -19.5040 C   0  0  0  0  0  0  0  0  0  0  0  0
   -5.3840    0.0790  -18.2300 C   0  0  0  0  0  0  0  0  0  0  0  0
   -6.5490   -0.5150  -17.9490 N   0  0  0  0  0  0  0  0  0  0  0  0
   -7.2230   -1.0570  -18.9690 C   0  0  0  0  0  0  0  0  0  0  0  0
  2  1  2  0
  3  2  2  0
  4  2  1  0
  5  4  1  0
  6  5  2  0
  7  6  1  0
  8  7  2  0
  9  8  1  0
 10  9  2  0
 10  5  1  0
 11 10  1  0
 12 11  2  0
 13 12  1  0
 13  4  2  0
  2 14  1  1
 15 14  1  0
 16 14  1  0
 17 16  1  0
 18 17  2  0
 19 17  1  0
 20 19  1  0
 21 20  2  0
 22 21  1  0
 23 21  1  0
 24 23  2  0
 25 24  1  0
 26 25  2  0
 26 20  1  0
M  END
$$$$

     RDKit          3D

  7  7  0  0  0  0  0  0  0  0999 V2000
   -5.7200   -6.1500  -19.9100 N   0  0  0  0  0  0  0  0  0  0  0  0
   -6.5980   -5.2950  -20.2990 C   0  0  0  0  0  0  0  0  0  0  0  0
   -6.2110   -4.3970  -21.3820 C   0  0  0  0  0  0  0  0  0  0  0  0
   -7.0280   -3.4720  -21.9280 N   0  0  0  0  0  0  0  0  0  0  0  0
   -6.3220   -2.8190  -22.8950 C   0  0  0  0  0  0  0  0  0  0  0  0
   -5.0920   -3.3710  -22.9000 C   0  0  0  0  0  0  0  0  0  0  0  0
   -5.0120   -4.3640  -21.9520 N   0  0  0  0  0  0  0  0  0  0  0  0
  2  1  1  0
  3  2  1  0
  4  3  2  0
  5  4  1  0
  6  5  2  0
  7  3  1  0
  7  6  1  0
M  CHG  1   1   1
M  END
$$$$

     RDKit          3D

 27 29  0  0  0  0  0  0  0  0999 V2000
   -8.8510   -0.2670  -21.5560 O   0  0  0  0  0  0  0  0  0  0  0  0
   -8.2970   -1.3410  -21.7780 C   0  0  0  0  0  0  0  0  0  0  0  0
   -7.1680   -1.7430  -21.1480 N   0  0  0  0  0  0  0  0  0  0  0  0
   -6.4910   -1.1100  -20.0820 C   0  0  0  0  0  0  0  0  0  0  0  0
   -5.3960   -0.2410  -20.3820 C   0  0  0  0  0  0  0  0  0  0  0  0
   -4.9010   -0.0160  -21.6930 C   0  0  0  0  0  0  0  0  0  0  0  0
   -3.8600    0.8410  -21.9150 C   0  0  0  0  0  0  0  0  0  0  0  0
   -3.2640    1.5160  -20.8590 C   0  0  0  0  0  0  0  0  0  0  0  0
   -3.6980    1.3310  -19.5790 C   0  0  0  0  0  0  0  0  0  0  0  0
   -4.7690    0.4470  -19.3020 C   0  0  0  0  0  0  0  0  0  0  0  0
   -5.2600    0.2040  -17.9960 C   0  0  0  0  0  0  0  0  0  0  0  0
   -6.2710   -0.6090  -17.7170 N   0  0  0  0  0  0  0  0  0  0  0  0
   -6.8590   -1.2410  -18.7420 C   0  0  0  0  0  0  0  0  0  0  0  0
   -8.8490   -2.3340  -22.7830 C   0  0  0  0  0  0  0  0  0  0  0  0
  -10.2540   -1.9360  -23.1850 C   0  0  0  0  0  0  0  0  0  0  0  0
  -11.3190   -2.3530  -22.3870 C   0  0  0  0  0  0  0  0  0  0  0  0
  -12.6050   -1.9400  -22.6800 C   0  0  0  0  0  0  0  0  0  0  0  0
  -13.9080   -2.4060  -21.6210 Cl  0  0  0  0  0  0  0  0  0  0  0  0
  -12.8740   -1.1420  -23.7650 C   0  0  0  0  0  0  0  0  0  0  0  0
  -11.8300   -0.7470  -24.5790 C   0  0  0  0  0  0  0  0  0  0  0  0
  -10.5160   -1.1290  -24.3100 C   0  0  0  0  0  0  0  0  0  0  0  0
   -9.3940   -0.6810  -25.2220 C   0  0  0  0  0  0  0  0  0  0  0  0
   -9.8550    0.1770  -26.3260 N   0  0  0  0  0  0  0  0  0  0  0  0
   -9.7110   -0.2030  -27.8950 S   0  0  1  0  0  0  0  0  0  0  0  0
  -11.0210   -0.1280  -28.4630 O   0  0  0  0  0  0  0  0  0  0  0  0
   -8.6820    0.6330  -28.4310 O   0  0  0  0  0  0  0  0  0  0  0  0
   -9.1670   -1.8650  -27.9940 C   0  0  0  0  0  0  0  0  0  0  0  0
  2  1  2  0
  3  2  1  0
  4  3  1  0
  5  4  1  0
  6  5  2  0
  7  6  1  0
  8  7  2  0
  9  8  1  0
 10  9  2  0
 10  5  1  0
 11 10  1  0
 12 11  2  0
 13 12  1  0
 13  4  2  0
 14  2  1  0
 15 14  1  0
 16 15  2  0
 17 16  1  0
 18 17  1  0
 19 17  2  0
 20 19  1  0
 21 20  2  0
 21 15  1  0
 22 21  1  0
 23 22  1  0
 24 23  1  0
 25 24  2  0
 26 24  2  0
 24 27  1  1
M  END
$$$$

     RDKit          3D

 22 24  0  0  0  0  0  0  0  0999 V2000
   -8.7260    0.0970  -21.6760 O   0  0  0  0  0  0  0  0  0  0  0  0
   -8.5520   -1.0460  -22.0820 C   0  0  0  0  0  0  0  0  0  0  0  0
   -7.5560   -1.9780  -21.3900 C   0  0  0  0  0  0  0  0  0  0  0  0
   -6.9080   -1.3300  -20.2670 N   0  0  0  0  0  0  0  0  0  0  0  0
   -5.8090   -0.5250  -20.2500 C   0  0  0  0  0  0  0  0  0  0  0  0
   -4.9780   -0.0150  -21.2360 C   0  0  0  0  0  0  0  0  0  0  0  0
   -3.9830    0.8700  -20.8480 C   0  0  0  0  0  0  0  0  0  0  0  0
   -3.8180    1.2220  -19.5110 C   0  0  0  0  0  0  0  0  0  0  0  0
   -4.6440    0.6890  -18.5270 C   0  0  0  0  0  0  0  0  0  0  0  0
   -5.6570   -0.1860  -18.9080 C   0  0  0  0  0  0  0  0  0  0  0  0
   -6.6560   -0.7950  -18.1830 N   0  0  0  0  0  0  0  0  0  0  0  0
   -7.4020   -1.4750  -19.0110 N   0  0  0  0  0  0  0  0  0  0  0  0
   -9.2240   -1.5390  -23.1440 N   0  0  0  0  0  0  0  0  0  0  0  0
   -8.8560   -2.7790  -23.8590 C   0  0  0  0  0  0  0  0  0  0  0  0
   -7.7780   -2.5660  -24.9020 C   0  0  0  0  0  0  0  0  0  0  0  0
  -10.3810   -0.8190  -23.6850 C   0  0  0  0  0  0  0  0  0  0  0  0
  -11.6380   -1.6520  -23.7710 C   0  0  0  0  0  0  0  0  0  0  0  0
  -12.1760   -2.2550  -22.6410 C   0  0  0  0  0  0  0  0  0  0  0  0
  -13.3580   -2.9750  -22.7170 C   0  0  0  0  0  0  0  0  0  0  0  0
  -14.0170   -3.1020  -23.9200 C   0  0  0  0  0  0  0  0  0  0  0  0
  -13.4950   -2.5120  -25.0470 C   0  0  0  0  0  0  0  0  0  0  0  0
  -12.3130   -1.7920  -24.9750 C   0  0  0  0  0  0  0  0  0  0  0  0
  2  1  2  0
  3  2  1  0
  4  3  1  0
  5  4  1  0
  6  5  2  0
  7  6  1  0
  8  7  2  0
  9  8  1  0
 10  5  1  0
 10  9  2  0
 11 10  1  0
 12 11  2  0
 12  4  1  0
 13  2  1  0
 14 13  1  0
 15 14  1  0
 16 13  1  0
 17 16  1  0
 18 17  2  0
 19 18  1  0
 20 19  2  0
 21 20  1  0
 22 21  2  0
 22 17  1  0
M  END
$$$$

     RDKit          3D

 15 15  0  0  0  0  0  0  0  0999 V2000
  -16.5940    1.4170   14.2170 C   0  0  0  0  0  0  0  0  0  0  0  0
  -17.1310    2.3200   12.1710 C   0  0  0  0  0  0  0  0  0  0  0  0
  -17.9480    1.4380   11.2410 C   0  0  0  0  0  0  0  0  0  0  0  0
  -19.0320    0.7350   11.7290 C   0  0  0  0  0  0  0  0  0  0  0  0
  -19.7710   -0.0740   10.8850 C   0  0  0  0  0  0  0  0  0  0  0  0
  -19.4380   -0.1880    9.5510 C   0  0  0  0  0  0  0  0  0  0  0  0
  -18.3570    0.5160    9.0520 C   0  0  0  0  0  0  0  0  0  0  0  0
  -16.3450    2.6590    7.2480 C   0  0  0  0  0  0  0  0  0  0  0  0
  -17.6190    1.3280    9.9050 C   0  0  0  0  0  0  0  0  0  0  0  0
  -18.0260    0.3730    7.6410 N   0  0  0  0  0  0  0  0  0  0  0  0
  -17.4190    2.3040   13.5280 O   0  0  0  0  0  0  0  0  0  0  0  0
  -16.2440    3.0050   11.7860 O   0  0  0  0  0  0  0  0  0  0  0  0
  -17.4580    1.3120    5.2540 O   0  0  0  0  0  0  0  0  0  0  0  0
  -18.9080    2.5610    6.4730 O   0  0  0  0  0  0  0  0  0  0  0  0
  -17.7190    1.7260    6.6460 S   0  0  2  0  0  0  0  0  0  0  0  0
  3  2  1  0
  4  3  2  0
  5  4  1  0
  6  5  2  0
  7  6  1  0
  9  7  2  0
  9  3  1  0
 10  7  1  0
 11  2  1  0
 11  1  1  0
 12  2  2  0
 15 13  2  0
 15 14  2  0
 15 10  1  0
 15  8  1  1
M  END
$$$$

     RDKit          3D

 19 20  0  0  0  0  0  0  0  0999 V2000
  -13.1870   -3.1500  -21.6640 Cl  0  0  0  0  0  0  0  0  0  0  0  0
  -12.0330   -2.2540  -22.6140 C   0  0  0  0  0  0  0  0  0  0  0  0
  -12.4870   -1.3380  -23.5390 C   0  0  0  0  0  0  0  0  0  0  0  0
  -11.5610   -0.6970  -24.3470 C   0  0  0  0  0  0  0  0  0  0  0  0
  -10.2070   -0.9520  -24.1960 C   0  0  0  0  0  0  0  0  0  0  0  0
  -10.6860   -2.5130  -22.4470 C   0  0  0  0  0  0  0  0  0  0  0  0
   -9.7540   -1.8410  -23.2310 C   0  0  0  0  0  0  0  0  0  0  0  0
   -8.2760   -2.0060  -22.9600 C   0  0  0  0  0  0  0  0  0  0  0  0
   -7.8240   -1.1670  -21.7800 C   0  0  0  0  0  0  0  0  0  0  0  0
   -8.5020   -0.2360  -21.3490 O   0  0  0  0  0  0  0  0  0  0  0  0
   -6.6330   -1.5340  -21.2500 N   0  0  0  0  0  0  0  0  0  0  0  0
   -6.0070   -0.8560  -20.1590 C   0  0  0  0  0  0  0  0  0  0  0  0
   -4.9840    0.0630  -20.4220 C   0  0  0  0  0  0  0  0  0  0  0  0
   -4.5140    0.3590  -21.8240 C   0  0  0  0  0  0  0  0  0  0  0  0
   -6.4300   -1.0830  -18.8350 C   0  0  0  0  0  0  0  0  0  0  0  0
   -7.5260   -2.0440  -18.4850 C   0  0  0  0  0  0  0  0  0  0  0  0
   -5.8620   -0.4290  -17.8150 N   0  0  0  0  0  0  0  0  0  0  0  0
   -4.8780    0.4440  -18.0730 C   0  0  0  0  0  0  0  0  0  0  0  0
   -4.4170    0.7130  -19.3390 C   0  0  0  0  0  0  0  0  0  0  0  0
  2  1  1  0
  3  2  2  0
  4  3  1  0
  5  4  2  0
  6  2  1  0
  7  6  2  0
  7  5  1  0
  8  7  1  0
  9  8  1  0
 10  9  2  0
 11  9  1  0
 12 11  1  0
 13 12  2  0
 14 13  1  0
 15 12  1  0
 16 15  1  0
 17 15  2  0
 18 17  1  0
 19 18  2  0
 19 13  1  0
M  END
$$$$

     RDKit          3D

 12 12  0  0  0  0  0  0  0  0999 V2000
   -5.7200   -6.2720  -24.4500 N   0  0  0  0  0  0  0  0  0  0  0  0
   -4.3460   -7.2650  -26.2080 C   0  0  0  0  0  0  0  0  0  0  0  0
   -6.6480   -6.7610  -26.4310 O   0  0  0  0  0  0  0  0  0  0  0  0
   -5.6580   -6.7460  -25.7090 C   0  0  0  0  0  0  0  0  0  0  0  0
   -4.7630   -6.6130  -23.3910 C   0  0  0  0  0  0  0  0  0  0  0  0
   -5.4760   -7.0520  -22.1290 C   0  0  0  0  0  0  0  0  0  0  0  0
   -7.4310   -5.7740  -22.7850 C   0  0  0  0  0  0  0  0  0  0  0  0
   -6.7250   -5.2990  -24.0320 C   0  0  0  0  0  0  0  0  0  0  0  0
   -6.5240   -5.3790  -20.5640 C   0  0  0  0  0  0  0  0  0  0  0  0
   -7.8490   -4.7220  -20.2960 C   0  0  0  0  0  0  0  0  0  0  0  0
   -6.4530   -6.0440  -21.7330 N   0  0  0  0  0  0  0  0  0  0  0  0
   -5.5990   -5.3090  -19.7670 O   0  0  0  0  0  0  0  0  0  0  0  0
  4  3  2  0
  4  1  1  0
  4  2  1  0
  5  1  1  0
  6  5  1  0
  8  7  1  0
  8  1  1  0
 10  9  1  0
 11  7  1  0
 11  6  1  0
 11  9  1  0
 12  9  2  0
M  END
$$$$

     RDKit          3D

 20 22  0  0  0  0  0  0  0  0999 V2000
  -13.6780   -2.6360  -21.5880 Cl  0  0  0  0  0  0  0  0  0  0  0  0
  -12.4420   -1.9300  -22.5900 C   0  0  0  0  0  0  0  0  0  0  0  0
  -12.7790   -0.9220  -23.4700 C   0  0  0  0  0  0  0  0  0  0  0  0
  -11.8050   -0.4350  -24.3280 C   0  0  0  0  0  0  0  0  0  0  0  0
  -10.5160   -0.9370  -24.2730 C   0  0  0  0  0  0  0  0  0  0  0  0
  -11.1580   -2.4240  -22.5090 C   0  0  0  0  0  0  0  0  0  0  0  0
  -10.1690   -1.9030  -23.3360 C   0  0  0  0  0  0  0  0  0  0  0  0
   -8.7020   -2.2080  -23.0470 C   0  0  2  0  0  0  0  0  0  0  0  0
   -7.7000   -2.5250  -24.1540 C   0  0  0  0  0  0  0  0  0  0  0  0
   -8.1180   -3.6070  -23.2210 C   0  0  0  0  0  0  0  0  0  0  0  0
   -8.1490   -1.3620  -21.8840 C   0  0  0  0  0  0  0  0  0  0  0  0
   -8.6560   -0.2840  -21.6030 O   0  0  0  0  0  0  0  0  0  0  0  0
   -7.0940   -1.8540  -21.2070 N   0  0  0  0  0  0  0  0  0  0  0  0
   -6.4160   -1.1320  -20.1980 C   0  0  0  0  0  0  0  0  0  0  0  0
   -5.2580   -0.4010  -20.5160 C   0  0  0  0  0  0  0  0  0  0  0  0
   -4.6990   -0.3580  -21.9150 C   0  0  0  0  0  0  0  0  0  0  0  0
   -6.8990   -1.0830  -18.8910 C   0  0  0  0  0  0  0  0  0  0  0  0
   -6.3260   -0.3690  -17.9190 N   0  0  0  0  0  0  0  0  0  0  0  0
   -5.2160    0.3140  -18.2300 C   0  0  0  0  0  0  0  0  0  0  0  0
   -4.6570    0.3230  -19.4920 C   0  0  0  0  0  0  0  0  0  0  0  0
  2  1  1  0
  3  2  2  0
  4  3  1  0
  5  4  2  0
  6  2  1  0
  7  6  2  0
  7  5  1  0
  8  7  1  0
  9  8  1  0
 10  9  1  0
 10  8  1  0
  8 11  1  1
 12 11  2  0
 13 11  1  0
 14 13  1  0
 15 14  2  0
 16 15  1  0
 17 14  1  0
 18 17  2  0
 19 18  1  0
 20 19  2  0
 20 15  1  0
M  END
$$$$

     RDKit          3D

 27 30  0  0  0  0  0  0  0  0999 V2000
  -13.8090   -2.9150  -21.4680 Cl  0  0  0  0  0  0  0  0  0  0  0  0
  -12.6360   -2.1190  -22.4820 C   0  0  0  0  0  0  0  0  0  0  0  0
  -13.0520   -1.0950  -23.3190 C   0  0  0  0  0  0  0  0  0  0  0  0
  -12.1170   -0.4020  -24.0680 C   0  0  0  0  0  0  0  0  0  0  0  0
  -10.7840   -0.7600  -23.9560 C   0  0  0  0  0  0  0  0  0  0  0  0
   -9.7200   -0.2390  -24.6580 O   0  0  0  0  0  0  0  0  0  0  0  0
   -8.5010   -0.9390  -24.2900 C   0  0  0  0  0  0  0  0  0  0  0  0
  -11.3010   -2.4680  -22.3670 C   0  0  0  0  0  0  0  0  0  0  0  0
  -10.3580   -1.7490  -23.0950 C   0  0  0  0  0  0  0  0  0  0  0  0
   -8.8460   -1.7260  -23.0290 C   0  0  2  0  0  0  0  0  0  0  0  0
   -8.1880   -1.1500  -21.7770 C   0  0  0  0  0  0  0  0  0  0  0  0
   -8.5950   -0.1270  -21.2470 O   0  0  0  0  0  0  0  0  0  0  0  0
   -7.1160   -1.8660  -21.1890 N   0  0  0  0  0  0  0  0  0  0  0  0
   -6.6040   -3.0880  -21.6980 C   0  0  0  0  0  0  0  0  0  0  0  0
   -6.9980   -3.5530  -22.7710 O   0  0  0  0  0  0  0  0  0  0  0  0
   -5.5660   -3.8020  -20.8940 C   0  0  0  0  0  0  0  0  0  0  0  0
   -6.2100   -5.0020  -20.1500 C   0  0  0  0  0  0  0  0  0  0  0  0
   -6.4530   -1.2380  -20.0580 C   0  0  0  0  0  0  0  0  0  0  0  0
   -6.9240   -1.3860  -18.7550 C   0  0  0  0  0  0  0  0  0  0  0  0
   -6.4390   -0.7250  -17.6930 N   0  0  0  0  0  0  0  0  0  0  0  0
   -5.4500    0.1330  -17.9040 C   0  0  0  0  0  0  0  0  0  0  0  0
   -4.8860    0.4070  -19.1760 C   0  0  0  0  0  0  0  0  0  0  0  0
   -5.4040   -0.2970  -20.2980 C   0  0  0  0  0  0  0  0  0  0  0  0
   -3.8560    1.3620  -19.3780 C   0  0  0  0  0  0  0  0  0  0  0  0
   -3.3680    1.6070  -20.6310 C   0  0  0  0  0  0  0  0  0  0  0  0
   -3.8720    0.9260  -21.7300 C   0  0  0  0  0  0  0  0  0  0  0  0
   -4.8650   -0.0020  -21.5800 C   0  0  0  0  0  0  0  0  0  0  0  0
  2  1  1  0
  3  2  2  0
  4  3  1  0
  5  4  2  0
  6  5  1  0
  7  6  1  0
  8  2  1  0
  9  8  2  0
  9  5  1  0
 10  9  1  0
 10  7  1  0
 10 11  1  1
 12 11  2  0
 13 11  1  0
 14 13  1  0
 15 14  2  0
 16 14  1  0
 17 16  1  0
 18 13  1  0
 19 18  2  0
 20 19  1  0
 21 20  2  0
 22 21  1  0
 23 18  1  0
 23 22  2  0
 24 22  1  0
 25 24  2  0
 26 25  1  0
 27 26  2  0
 27 23  1  0
M  END
$$$$

     RDKit          3D

 21 24  0  0  0  0  0  0  0  0999 V2000
   -6.2850   -2.7920  -21.7390 C   0  0  0  0  0  0  0  0  0  0  0  0
   -7.1290   -3.0460  -22.7660 N   0  0  0  0  0  0  0  0  0  0  0  0
   -5.2650   -3.3710  -21.4300 O   0  0  0  0  0  0  0  0  0  0  0  0
   -8.3290   -2.2360  -22.6870 C   0  0  1  0  0  0  0  0  0  0  0  0
   -6.7840   -1.6340  -21.0890 N   0  0  0  0  0  0  0  0  0  0  0  0
   -8.6770   -0.2820  -21.2950 O   0  0  0  0  0  0  0  0  0  0  0  0
   -8.9080   -1.5800  -23.9620 C   0  0  0  0  0  0  0  0  0  0  0  0
   -6.0230   -0.4000  -17.7140 N   0  0  0  0  0  0  0  0  0  0  0  0
  -10.1900   -2.4280  -23.8040 C   0  0  2  0  0  0  0  0  0  0  0  0
  -11.5560   -1.7420  -23.9250 C   0  0  1  0  0  0  0  0  0  0  0  0
  -12.0880   -1.6710  -25.3550 C   0  0  0  0  0  0  0  0  0  0  0  0
  -12.9410   -2.9180  -25.0490 C   0  0  0  0  0  0  0  0  0  0  0  0
  -12.8290   -2.5350  -23.5650 C   0  0  0  0  0  0  0  0  0  0  0  0
   -9.6880   -2.9410  -22.4370 C   0  0  0  0  0  0  0  0  0  0  0  0
   -8.0060   -1.2430  -21.6200 C   0  0  0  0  0  0  0  0  0  0  0  0
   -6.1090   -0.9360  -20.0310 C   0  0  0  0  0  0  0  0  0  0  0  0
   -6.6000   -1.0180  -18.7390 C   0  0  0  0  0  0  0  0  0  0  0  0
   -4.9450    0.3590  -17.9430 C   0  0  0  0  0  0  0  0  0  0  0  0
   -4.4130    0.4710  -19.2090 C   0  0  0  0  0  0  0  0  0  0  0  0
   -4.9950   -0.1570  -20.2780 C   0  0  0  0  0  0  0  0  0  0  0  0
   -3.2920    1.2280  -19.3840 F   0  0  0  0  0  0  0  0  0  0  0  0
  2  1  1  0
  3  1  2  0
  4  2  1  0
  5  1  1  0
  4  7  1  6
  9  7  1  1
 10  9  1  0
 10 11  1  6
 12 11  1  0
 13 12  1  0
 13 10  1  0
 14  9  1  0
 14  4  1  0
 15  4  1  0
 15  6  2  0
 15  5  1  0
 16  5  1  0
 17 16  1  0
 17  8  2  0
 18  8  1  0
 19 18  2  0
 20 16  2  0
 20 19  1  0
 21 19  1  0
M  END
$$$$

     RDKit          3D

 30 31  0  0  0  0  0  0  0  0999 V2000
   -9.0260    0.0680  -21.3180 O   0  0  0  0  0  0  0  0  0  0  0  0
   -8.1050   -0.0920  -22.1080 C   0  0  0  0  0  0  0  0  0  0  0  0
   -8.0190    0.5990  -23.2450 N   0  0  0  0  0  0  0  0  0  0  0  0
   -9.0390    1.5560  -23.6590 C   0  0  0  0  0  0  0  0  0  0  0  0
  -10.3840    0.8920  -23.9260 C   0  0  0  0  0  0  0  0  0  0  0  0
  -11.5010    1.8510  -24.2590 C   0  0  0  0  0  0  0  0  0  0  0  0
  -11.6870    2.8640  -23.2940 O   0  0  0  0  0  0  0  0  0  0  0  0
  -12.9940    3.4240  -23.3570 C   0  0  0  0  0  0  0  0  0  0  0  0
   -6.9680   -1.0750  -21.7820 C   0  0  1  0  0  0  0  0  0  0  0  0
   -6.3270   -0.7680  -20.4360 C   0  0  0  0  0  0  0  0  0  0  0  0
   -5.1830    0.0150  -20.3570 C   0  0  0  0  0  0  0  0  0  0  0  0
   -4.7150    0.4380  -19.1270 C   0  0  0  0  0  0  0  0  0  0  0  0
   -5.4140    0.0560  -17.9950 C   0  0  0  0  0  0  0  0  0  0  0  0
   -6.5110   -0.7070  -18.0320 N   0  0  0  0  0  0  0  0  0  0  0  0
   -6.9340   -1.1130  -19.2350 C   0  0  0  0  0  0  0  0  0  0  0  0
   -7.2940   -2.5060  -22.0550 N   0  0  0  0  0  0  0  0  0  0  0  0
   -6.4090   -3.4870  -21.7000 C   0  0  0  0  0  0  0  0  0  0  0  0
   -5.2880   -3.2240  -21.3000 O   0  0  0  0  0  0  0  0  0  0  0  0
   -6.8000   -4.9330  -21.9050 C   0  0  0  0  0  0  0  0  0  0  0  0
   -7.7990   -5.5260  -20.8880 C   0  0  0  0  0  0  0  0  0  0  0  0
   -8.5180   -2.7980  -22.7540 C   0  0  0  0  0  0  0  0  0  0  0  0
   -8.5200   -2.9470  -24.1410 C   0  0  0  0  0  0  0  0  0  0  0  0
   -9.7130   -3.1530  -24.8160 C   0  0  0  0  0  0  0  0  0  0  0  0
  -10.9280   -3.1970  -24.1360 C   0  0  0  0  0  0  0  0  0  0  0  0
  -12.2520   -3.2710  -24.9090 C   0  0  1  0  0  0  0  0  0  0  0  0
  -12.4820   -1.9400  -25.6180 C   0  0  0  0  0  0  0  0  0  0  0  0
  -12.2230   -4.4050  -25.9470 C   0  0  0  0  0  0  0  0  0  0  0  0
  -13.4540   -3.5110  -23.9870 C   0  0  0  0  0  0  0  0  0  0  0  0
  -10.9100   -3.0670  -22.7490 C   0  0  0  0  0  0  0  0  0  0  0  0
   -9.7230   -2.8730  -22.0630 C   0  0  0  0  0  0  0  0  0  0  0  0
  2  1  2  0
  3  2  1  0
  4  3  1  0
  5  4  1  0
  6  5  1  0
  7  6  1  0
  8  7  1  0
  9  2  1  0
 10  9  1  0
 11 10  2  0
 12 11  1  0
 13 12  2  0
 14 13  1  0
 15 14  2  0
 15 10  1  0
  9 16  1  1
 17 16  1  0
 18 17  2  0
 19 17  1  0
 20 19  1  0
 21 16  1  0
 22 21  2  0
 23 22  1  0
 24 23  2  0
 25 24  1  0
 25 26  1  6
 27 25  1  0
 28 25  1  0
 29 24  1  0
 30 29  2  0
 30 21  1  0
M  END
$$$$

     RDKit          3D

 17 19  0  0  0  0  0  0  0  0999 V2000
   -8.9460   -0.0210  -21.3490 O   0  0  0  0  0  0  0  0  0  0  0  0
   -8.3560   -0.9810  -21.8250 C   0  0  0  0  0  0  0  0  0  0  0  0
   -8.8240   -1.6640  -23.0860 C   0  0  2  0  0  0  0  0  0  0  0  0
  -10.0680   -1.0530  -23.7820 C   0  0  0  0  0  0  0  0  0  0  0  0
  -10.9110   -2.0620  -22.9780 C   0  0  1  0  0  0  0  0  0  0  0  0
  -12.0150   -2.6110  -23.7300 C   0  0  2  0  0  0  0  0  0  0  0  0
  -13.2330   -1.7720  -23.9650 C   0  0  0  0  0  0  0  0  0  0  0  0
  -13.3070   -2.9520  -23.0550 C   0  0  0  0  0  0  0  0  0  0  0  0
   -9.6580   -2.9580  -22.9050 C   0  0  0  0  0  0  0  0  0  0  0  0
   -7.2320   -1.4990  -21.2970 N   0  0  0  0  0  0  0  0  0  0  0  0
   -6.5320   -0.9380  -20.2140 C   0  0  0  0  0  0  0  0  0  0  0  0
   -5.3530   -0.2080  -20.4560 C   0  0  0  0  0  0  0  0  0  0  0  0
   -4.8360    0.0370  -21.8500 C   0  0  0  0  0  0  0  0  0  0  0  0
   -7.0030   -1.0470  -18.9060 C   0  0  0  0  0  0  0  0  0  0  0  0
   -6.3970   -0.4760  -17.8610 N   0  0  0  0  0  0  0  0  0  0  0  0
   -5.2670    0.1980  -18.0960 C   0  0  0  0  0  0  0  0  0  0  0  0
   -4.7120    0.3460  -19.3540 C   0  0  0  0  0  0  0  0  0  0  0  0
  2  1  2  0
  3  2  1  1
  4  3  1  0
  5  4  1  6
  6  5  1  0
  6  7  1  6
  8  7  1  0
  8  6  1  0
  9  5  1  0
  9  3  1  0
 10  2  1  0
 11 10  1  0
 12 11  2  0
 13 12  1  0
 14 11  1  0
 15 14  2  0
 16 15  1  0
 17 16  2  0
 17 12  1  0
M  END
$$$$

     RDKit          3D

 23 25  0  0  0  0  0  0  0  0999 V2000
   -6.8240   -1.4020  -18.3860 O   0  0  0  0  0  0  0  0  0  0  0  0
   -6.1770   -1.3090  -19.4230 C   0  0  0  0  0  0  0  0  0  0  0  0
   -5.1410   -0.2760  -19.5790 C   0  0  0  0  0  0  0  0  0  0  0  0
   -4.6570    0.5570  -18.1720 S   0  0  0  0  0  0  0  0  0  0  0  0
   -3.5560    1.5050  -19.0570 C   0  0  0  0  0  0  0  0  0  0  0  0
   -3.5480    1.1920  -20.3690 C   0  0  0  0  0  0  0  0  0  0  0  0
   -4.4480    0.1640  -20.6920 C   0  0  0  0  0  0  0  0  0  0  0  0
   -6.4050   -2.0890  -20.5250 N   0  0  0  0  0  0  0  0  0  0  0  0
   -7.4010   -3.0760  -20.6090 C   0  0  0  0  0  0  0  0  0  0  0  0
   -7.0900   -4.3420  -20.0250 C   0  0  0  0  0  0  0  0  0  0  0  0
   -6.0650   -4.6180  -19.4370 O   0  0  0  0  0  0  0  0  0  0  0  0
   -8.6170   -2.8440  -21.2530 C   0  0  0  0  0  0  0  0  0  0  0  0
   -9.0650   -1.6510  -21.8940 C   0  0  0  0  0  0  0  0  0  0  0  0
   -8.1920   -0.1510  -21.9040 S   0  0  0  0  0  0  0  0  0  0  0  0
   -9.3950    0.6010  -22.9130 C   0  0  0  0  0  0  0  0  0  0  0  0
  -10.4200   -0.2790  -23.2140 C   0  0  0  0  0  0  0  0  0  0  0  0
  -10.2280   -1.5450  -22.6300 C   0  0  0  0  0  0  0  0  0  0  0  0
   -9.2650    1.9000  -23.3130 N   0  0  0  0  0  0  0  0  0  0  0  0
  -10.0860    2.3220  -24.4590 C   0  0  0  0  0  0  0  0  0  0  0  0
  -10.2850    3.8210  -24.4210 C   0  0  0  0  0  0  0  0  0  0  0  0
   -9.0330    4.5150  -24.3530 O   0  0  0  0  0  0  0  0  0  0  0  0
   -8.2960    4.1370  -23.1760 C   0  0  0  0  0  0  0  0  0  0  0  0
   -8.0100    2.6540  -23.1560 C   0  0  0  0  0  0  0  0  0  0  0  0
  2  1  2  0
  3  2  1  0
  4  3  1  0
  5  4  1  0
  6  5  2  0
  7  6  1  0
  7  3  2  0
  8  2  1  0
  9  8  1  0
 10  9  1  0
 11 10  2  0
 12  9  1  0
 13 12  1  0
 14 13  1  0
 15 14  1  0
 16 15  2  0
 17 16  1  0
 17 13  2  0
 18 15  1  0
 19 18  1  0
 20 19  1  0
 21 20  1  0
 22 21  1  0
 23 22  1  0
 23 18  1  0
M  END
$$$$

     RDKit          3D

 34 38  0  0  0  0  0  0  0  0999 V2000
   -9.0950    4.9060  -23.4110 N   0  0  0  0  0  0  0  0  0  0  0  0
   -8.1730    4.2380  -23.3510 C   0  0  0  0  0  0  0  0  0  0  0  0
   -6.9730    3.4030  -23.2120 C   0  0  2  0  0  0  0  0  0  0  0  0
   -6.1880    3.9040  -21.9690 C   0  0  0  0  0  0  0  0  0  0  0  0
   -5.3120    4.7550  -22.8840 C   0  0  0  0  0  0  0  0  0  0  0  0
   -5.7790    3.9070  -24.0700 C   0  0  0  0  0  0  0  0  0  0  0  0
   -7.3560    1.9270  -23.2870 C   0  0  0  0  0  0  0  0  0  0  0  0
   -7.4060    1.0680  -24.8500 S   0  0  2  0  0  0  0  0  0  0  0  0
   -6.1360    0.4510  -25.0740 O   0  0  0  0  0  0  0  0  0  0  0  0
   -7.9260    1.9630  -25.8360 O   0  0  0  0  0  0  0  0  0  0  0  0
   -8.4900   -0.1280  -24.6630 N   0  0  0  0  0  0  0  0  0  0  0  0
   -9.8850    0.0920  -25.0640 C   0  0  0  0  0  0  0  0  0  0  0  0
   -8.1430   -1.5150  -24.3040 C   0  0  0  0  0  0  0  0  0  0  0  0
   -8.9220   -1.8930  -23.0430 C   0  0  2  0  0  0  0  0  0  0  0  0
  -10.4020   -1.5990  -23.2200 C   0  0  0  0  0  0  0  0  0  0  0  0
  -10.8290   -0.5920  -24.1010 C   0  0  0  0  0  0  0  0  0  0  0  0
  -12.1770   -0.2370  -24.1240 C   0  0  0  0  0  0  0  0  0  0  0  0
  -13.0980   -0.8760  -23.3160 C   0  0  0  0  0  0  0  0  0  0  0  0
  -11.3430   -2.2700  -22.4390 C   0  0  0  0  0  0  0  0  0  0  0  0
  -12.6720   -1.8980  -22.4990 C   0  0  0  0  0  0  0  0  0  0  0  0
  -13.8400   -2.7550  -21.5310 Cl  0  0  0  0  0  0  0  0  0  0  0  0
   -8.4080   -1.1170  -21.8280 C   0  0  0  0  0  0  0  0  0  0  0  0
   -9.0030   -0.1360  -21.3780 O   0  0  0  0  0  0  0  0  0  0  0  0
   -7.2480   -1.5850  -21.3020 N   0  0  0  0  0  0  0  0  0  0  0  0
   -6.5440   -1.0710  -20.1870 C   0  0  0  0  0  0  0  0  0  0  0  0
   -5.4010   -0.2360  -20.4140 C   0  0  0  0  0  0  0  0  0  0  0  0
   -4.8180   -0.0240  -21.6900 C   0  0  0  0  0  0  0  0  0  0  0  0
   -3.7440    0.8060  -21.8430 C   0  0  0  0  0  0  0  0  0  0  0  0
   -3.2020    1.4730  -20.7520 C   0  0  0  0  0  0  0  0  0  0  0  0
   -3.7150    1.2870  -19.5010 C   0  0  0  0  0  0  0  0  0  0  0  0
   -4.8180    0.4210  -19.2930 C   0  0  0  0  0  0  0  0  0  0  0  0
   -5.3730    0.1620  -18.0150 C   0  0  0  0  0  0  0  0  0  0  0  0
   -6.4070   -0.6410  -17.8000 N   0  0  0  0  0  0  0  0  0  0  0  0
   -6.9730   -1.2260  -18.8670 C   0  0  0  0  0  0  0  0  0  0  0  0
  2  1  3  0
  3  2  1  6
  4  3  1  0
  5  4  1  0
  6  3  1  0
  6  5  1  0
  7  3  1  0
  8  7  1  1
  9  8  2  0
 10  8  2  0
 11  8  1  0
 12 11  1  0
 13 11  1  0
 14 13  1  0
 15 14  1  0
 16 15  2  0
 16 12  1  0
 17 16  1  0
 18 17  2  0
 19 15  1  0
 20 19  2  0
 20 18  1  0
 21 20  1  0
 14 22  1  1
 23 22  2  0
 24 22  1  0
 25 24  1  0
 26 25  1  0
 27 26  2  0
 28 27  1  0
 29 28  2  0
 30 29  1  0
 31 30  2  0
 31 26  1  0
 32 31  1  0
 33 32  2  0
 34 33  1  0
 34 25  2  0
M  END
$$$$

     RDKit          3D

 17 18  0  0  0  0  0  0  0  0999 V2000
   -5.1040    0.3700  -18.1530 C   0  0  0  0  0  0  0  0  0  0  0  0
   -8.6990   -2.1340  -22.6470 N   0  0  0  0  0  0  0  0  0  0  0  0
   -6.1720   -0.3750  -17.8350 N   0  0  0  0  0  0  0  0  0  0  0  0
  -12.5760   -1.1910  -23.8310 C   0  0  0  0  0  0  0  0  0  0  0  0
  -11.0610   -2.5030  -22.4840 C   0  0  0  0  0  0  0  0  0  0  0  0
  -12.3360   -2.0830  -22.8060 C   0  0  0  0  0  0  0  0  0  0  0  0
   -4.5590    0.4170  -19.4220 C   0  0  0  0  0  0  0  0  0  0  0  0
  -11.5050   -0.7500  -24.5960 C   0  0  0  0  0  0  0  0  0  0  0  0
   -7.0090   -1.7620  -21.1440 N   0  0  0  0  0  0  0  0  0  0  0  0
   -6.2720   -1.1010  -20.1280 C   0  0  0  0  0  0  0  0  0  0  0  0
   -8.7890   -0.3390  -21.2420 O   0  0  0  0  0  0  0  0  0  0  0  0
   -8.2100   -1.3400  -21.6470 C   0  0  0  0  0  0  0  0  0  0  0  0
   -5.1500   -0.3370  -20.4230 C   0  0  0  0  0  0  0  0  0  0  0  0
   -9.9880   -1.9950  -23.2090 C   0  0  0  0  0  0  0  0  0  0  0  0
   -6.7330   -1.0970  -18.8120 C   0  0  0  0  0  0  0  0  0  0  0  0
  -10.2130   -1.1570  -24.2950 C   0  0  0  0  0  0  0  0  0  0  0  0
  -13.6790   -2.7080  -21.8940 Cl  0  0  0  0  0  0  0  0  0  0  0  0
  3  1  2  0
  6  5  1  0
  6  4  2  0
  7  1  1  0
  8  4  1  0
 10  9  1  0
 12  2  1  0
 12 11  2  0
 12  9  1  0
 13 10  1  0
 13  7  2  0
 14  5  2  0
 14  2  1  0
 15 10  2  0
 15  3  1  0
 16  8  2  0
 16 14  1  0
 17  6  1  0
M  END
$$$$

     RDKit          3D

 20 21  0  0  0  0  0  0  0  0999 V2000
   -8.5920   -0.5890  -21.2160 O   0  0  0  0  0  0  0  0  0  0  0  0
   -7.9310   -1.6080  -21.4130 C   0  0  0  0  0  0  0  0  0  0  0  0
   -8.3620   -2.6610  -22.4090 C   0  0  0  0  0  0  0  0  0  0  0  0
   -9.6490   -2.2070  -23.0450 C   0  0  0  0  0  0  0  0  0  0  0  0
  -10.8670   -2.5360  -22.4630 C   0  0  0  0  0  0  0  0  0  0  0  0
  -12.0360   -2.0760  -23.0250 C   0  0  0  0  0  0  0  0  0  0  0  0
  -13.5520   -2.5570  -22.3230 Cl  0  0  0  0  0  0  0  0  0  0  0  0
  -12.0390   -1.2850  -24.1570 C   0  0  0  0  0  0  0  0  0  0  0  0
   -9.6290   -1.4270  -24.1960 C   0  0  0  0  0  0  0  0  0  0  0  0
  -10.8220   -0.9860  -24.7500 C   0  0  0  0  0  0  0  0  0  0  0  0
  -10.9440   -0.3500  -25.9590 O   0  0  0  0  0  0  0  0  0  0  0  0
   -9.7700   -0.1690  -26.7570 C   0  0  0  0  0  0  0  0  0  0  0  0
   -6.7590   -1.8720  -20.8050 N   0  0  0  0  0  0  0  0  0  0  0  0
   -6.1690   -1.0430  -19.8350 C   0  0  0  0  0  0  0  0  0  0  0  0
   -5.0970   -0.2050  -20.1880 C   0  0  0  0  0  0  0  0  0  0  0  0
   -4.5800   -0.1180  -21.6020 C   0  0  0  0  0  0  0  0  0  0  0  0
   -4.5770    0.6130  -19.1910 C   0  0  0  0  0  0  0  0  0  0  0  0
   -5.1380    0.5930  -17.9310 C   0  0  0  0  0  0  0  0  0  0  0  0
   -6.1740   -0.1880  -17.5940 N   0  0  0  0  0  0  0  0  0  0  0  0
   -6.6700   -0.9970  -18.5350 C   0  0  0  0  0  0  0  0  0  0  0  0
  2  1  2  0
  3  2  1  0
  4  3  1  0
  5  4  2  0
  6  5  1  0
  7  6  1  0
  8  6  2  0
  9  4  1  0
 10  8  1  0
 10  9  2  0
 11 10  1  0
 12 11  1  0
 13  2  1  0
 14 13  1  0
 15 14  2  0
 16 15  1  0
 17 15  1  0
 18 17  2  0
 19 18  1  0
 20 19  2  0
 20 14  1  0
M  END
$$$$

     RDKit          3D

 23 25  0  0  0  0  0  0  0  0999 V2000
  -14.3700   -2.6090  -21.0100 Cl  0  0  0  0  0  0  0  0  0  0  0  0
  -13.3510   -1.8430  -22.1990 C   0  0  0  0  0  0  0  0  0  0  0  0
  -13.8680   -0.8300  -22.9790 C   0  0  0  0  0  0  0  0  0  0  0  0
  -13.0430   -0.1840  -23.8830 C   0  0  0  0  0  0  0  0  0  0  0  0
  -12.0260   -2.2230  -22.2910 C   0  0  0  0  0  0  0  0  0  0  0  0
  -11.1690   -1.5520  -23.1630 C   0  0  0  0  0  0  0  0  0  0  0  0
  -11.7080   -0.5550  -23.9830 C   0  0  0  0  0  0  0  0  0  0  0  0
  -11.0000    0.0320  -25.0070 O   0  0  0  0  0  0  0  0  0  0  0  0
   -9.5590    0.0100  -24.8790 C   0  0  0  0  0  0  0  0  0  0  0  0
   -9.0420   -1.3590  -24.5040 C   0  0  0  0  0  0  0  0  0  0  0  0
   -9.6770   -1.8250  -23.1820 C   0  0  1  0  0  0  0  0  0  0  0  0
   -9.0010   -1.1020  -22.0160 C   0  0  0  0  0  0  0  0  0  0  0  0
   -9.3670    0.0130  -21.6340 O   0  0  0  0  0  0  0  0  0  0  0  0
   -7.9310   -1.7530  -21.4960 N   0  0  0  0  0  0  0  0  0  0  0  0
   -7.0430   -1.2480  -20.5030 C   0  0  0  0  0  0  0  0  0  0  0  0
   -7.3200   -1.3740  -19.1420 C   0  0  0  0  0  0  0  0  0  0  0  0
   -6.5530   -0.8400  -18.1810 N   0  0  0  0  0  0  0  0  0  0  0  0
   -5.4650   -0.1620  -18.5580 C   0  0  0  0  0  0  0  0  0  0  0  0
   -5.8880   -0.5570  -20.9030 C   0  0  0  0  0  0  0  0  0  0  0  0
   -5.5080   -0.4430  -22.3620 C   0  0  0  0  0  0  0  0  0  0  0  0
   -5.0850    0.0070  -19.8970 C   0  0  0  0  0  0  0  0  0  0  0  0
   -3.9850    0.7520  -20.2570 N   0  0  0  0  0  0  0  0  0  0  0  0
   -3.1500    1.4560  -19.3110 C   0  0  0  0  0  0  0  0  0  0  0  0
  2  1  1  0
  3  2  2  0
  4  3  1  0
  5  2  1  0
  6  5  2  0
  7  6  1  0
  7  4  2  0
  8  7  1  0
  9  8  1  0
 10  9  1  0
 11  6  1  0
 11 10  1  0
 11 12  1  1
 13 12  2  0
 14 12  1  0
 15 14  1  0
 16 15  2  0
 17 16  1  0
 18 17  2  0
 19 15  1  0
 20 19  1  0
 21 19  2  0
 21 18  1  0
 22 21  1  0
 23 22  1  0
M  END
$$$$

     RDKit          3D

 28 29  0  0  0  0  0  0  0  0999 V2000
   -9.0070    0.4720  -21.2610 O   0  0  0  0  0  0  0  0  0  0  0  0
   -8.0440    0.2350  -21.9850 C   0  0  0  0  0  0  0  0  0  0  0  0
   -7.8100    0.8340  -23.1640 N   0  0  0  0  0  0  0  0  0  0  0  0
   -8.6520    1.8680  -23.8130 C   0  0  1  0  0  0  0  0  0  0  0  0
  -10.1320    1.6790  -23.5030 C   0  0  0  0  0  0  0  0  0  0  0  0
   -8.1900    3.2360  -23.3320 C   0  0  0  0  0  0  0  0  0  0  0  0
   -8.4300    1.7450  -25.3140 C   0  0  0  0  0  0  0  0  0  0  0  0
   -6.9980   -0.8180  -21.5850 C   0  0  2  0  0  0  0  0  0  0  0  0
   -7.3340   -2.2190  -21.9410 N   0  0  0  0  0  0  0  0  0  0  0  0
   -8.4710   -2.5140  -22.7610 C   0  0  0  0  0  0  0  0  0  0  0  0
   -9.8270   -2.1280  -22.5750 C   0  0  0  0  0  0  0  0  0  0  0  0
  -10.4280   -2.5090  -23.7090 C   0  0  0  0  0  0  0  0  0  0  0  0
  -11.8630   -2.3230  -24.1490 C   0  0  2  0  0  0  0  0  0  0  0  0
  -12.3520   -3.5820  -24.8720 C   0  0  0  0  0  0  0  0  0  0  0  0
  -11.9520   -1.1320  -25.1060 C   0  0  0  0  0  0  0  0  0  0  0  0
  -12.7530   -2.0690  -22.9280 C   0  0  0  0  0  0  0  0  0  0  0  0
   -9.5680   -3.1160  -24.5500 O   0  0  0  0  0  0  0  0  0  0  0  0
   -8.2860   -3.1350  -23.9500 N   0  0  0  0  0  0  0  0  0  0  0  0
   -6.4930   -3.3100  -21.6960 C   0  0  0  0  0  0  0  0  0  0  0  0
   -5.2880   -3.1350  -21.7070 O   0  0  0  0  0  0  0  0  0  0  0  0
   -7.0930   -4.6620  -21.4400 C   0  0  0  0  0  0  0  0  0  0  0  0
   -6.7220   -5.1700  -20.0990 C   0  0  0  0  0  0  0  0  0  0  0  0
   -6.4220   -0.5690  -20.2000 C   0  0  0  0  0  0  0  0  0  0  0  0
   -5.2990    0.2300  -20.0320 C   0  0  0  0  0  0  0  0  0  0  0  0
   -4.8210    0.4990  -18.7620 C   0  0  0  0  0  0  0  0  0  0  0  0
   -5.4840   -0.0530  -17.6830 C   0  0  0  0  0  0  0  0  0  0  0  0
   -6.5580   -0.8430  -17.8090 N   0  0  0  0  0  0  0  0  0  0  0  0
   -7.0040   -1.0830  -19.0490 C   0  0  0  0  0  0  0  0  0  0  0  0
  2  1  2  0
  3  2  1  0
  4  3  1  0
  4  5  1  6
  6  4  1  0
  7  4  1  0
  8  2  1  0
  8  9  1  1
 10  9  1  0
 11 10  1  0
 12 11  2  0
 13 12  1  0
 13 14  1  6
 15 13  1  0
 16 13  1  0
 17 12  1  0
 18 17  1  0
 18 10  2  0
 19  9  1  0
 20 19  2  0
 21 19  1  0
 22 21  1  0
 23  8  1  0
 24 23  2  0
 25 24  1  0
 26 25  2  0
 27 26  1  0
 28 27  2  0
 28 23  1  0
M  END
$$$$

     RDKit          3D

 33 37  0  0  0  0  0  0  0  0999 V2000
  -13.8020   -2.7360  -21.4410 Cl  0  0  0  0  0  0  0  0  0  0  0  0
  -12.6680   -2.0010  -22.5360 C   0  0  0  0  0  0  0  0  0  0  0  0
  -11.3270   -2.3120  -22.4240 C   0  0  0  0  0  0  0  0  0  0  0  0
  -13.1180   -1.0870  -23.4580 C   0  0  0  0  0  0  0  0  0  0  0  0
  -12.2050   -0.4720  -24.2940 C   0  0  0  0  0  0  0  0  0  0  0  0
  -10.8410   -0.7350  -24.1910 C   0  0  0  0  0  0  0  0  0  0  0  0
   -9.9000    0.0380  -25.0970 C   0  0  0  0  0  0  0  0  0  0  0  0
   -8.4810   -0.2520  -24.8520 N   0  0  0  0  0  0  0  0  0  0  0  0
   -7.2350    0.6790  -25.2320 S   0  0  2  0  0  0  0  0  0  0  0  0
   -7.4000    1.0910  -26.5820 O   0  0  0  0  0  0  0  0  0  0  0  0
   -6.0560    0.0020  -24.8170 O   0  0  0  0  0  0  0  0  0  0  0  0
   -7.4340    1.9760  -24.3230 N   0  0  0  0  0  0  0  0  0  0  0  0
   -7.6980    3.4050  -24.6370 C   0  0  0  0  0  0  0  0  0  0  0  0
   -7.3820    2.2640  -22.8630 C   0  0  0  0  0  0  0  0  0  0  0  0
   -7.1530    3.7340  -23.2380 C   0  0  1  0  0  0  0  0  0  0  0  0
   -5.7400    3.9320  -23.2080 O   0  0  0  0  0  0  0  0  0  0  0  0
   -5.2550    4.3760  -21.9540 C   0  0  0  0  0  0  0  0  0  0  0  0
  -10.3960   -1.6570  -23.2310 C   0  0  0  0  0  0  0  0  0  0  0  0
   -8.9120   -1.8930  -23.0400 C   0  0  1  0  0  0  0  0  0  0  0  0
   -8.1640   -1.5960  -24.3360 C   0  0  0  0  0  0  0  0  0  0  0  0
   -8.4160   -1.0720  -21.8470 C   0  0  0  0  0  0  0  0  0  0  0  0
   -9.0710   -0.1410  -21.3770 O   0  0  0  0  0  0  0  0  0  0  0  0
   -7.2280   -1.4790  -21.3340 N   0  0  0  0  0  0  0  0  0  0  0  0
   -6.5380   -0.9770  -20.2090 C   0  0  0  0  0  0  0  0  0  0  0  0
   -5.3760   -0.1700  -20.4140 C   0  0  0  0  0  0  0  0  0  0  0  0
   -4.8120    0.0940  -21.6880 C   0  0  0  0  0  0  0  0  0  0  0  0
   -3.7230    0.9060  -21.8220 C   0  0  0  0  0  0  0  0  0  0  0  0
   -3.1380    1.4950  -20.7080 C   0  0  0  0  0  0  0  0  0  0  0  0
   -3.6290    1.2570  -19.4570 C   0  0  0  0  0  0  0  0  0  0  0  0
   -4.7550    0.4150  -19.2720 C   0  0  0  0  0  0  0  0  0  0  0  0
   -5.3050    0.1250  -18.0010 C   0  0  0  0  0  0  0  0  0  0  0  0
   -6.3670   -0.6440  -17.8070 N   0  0  0  0  0  0  0  0  0  0  0  0
   -6.9580   -1.1660  -18.8900 C   0  0  0  0  0  0  0  0  0  0  0  0
  2  1  1  0
  3  2  2  0
  4  2  1  0
  5  4  2  0
  6  5  1  0
  7  6  1  0
  8  7  1  0
  9  8  1  1
 10  9  2  0
 11  9  2  0
 12  9  1  0
 13 12  1  0
 14 12  1  0
 15 14  1  0
 15 13  1  0
 15 16  1  6
 17 16  1  0
 18  3  1  0
 18  6  2  0
 19 18  1  0
 20 19  1  0
 20  8  1  0
 19 21  1  1
 22 21  2  0
 23 21  1  0
 24 23  1  0
 25 24  1  0
 26 25  2  0
 27 26  1  0
 28 27  2  0
 29 28  1  0
 30 29  2  0
 30 25  1  0
 31 30  1  0
 32 31  2  0
 33 32  1  0
 33 24  2  0
M  END
$$$$

     RDKit          3D

 29 32  0  0  0  0  0  0  0  0999 V2000
   -8.8250    0.2900  -21.3850 O   0  0  0  0  0  0  0  0  0  0  0  0
   -8.5340   -0.7270  -21.9920 C   0  0  0  0  0  0  0  0  0  0  0  0
   -7.7770   -1.8570  -21.2950 C   0  0  0  0  0  0  0  0  0  0  0  0
   -6.8770   -1.3320  -20.2870 N   0  0  0  0  0  0  0  0  0  0  0  0
   -5.7670   -0.5610  -20.4450 C   0  0  0  0  0  0  0  0  0  0  0  0
   -5.0550   -0.1210  -21.5530 C   0  0  0  0  0  0  0  0  0  0  0  0
   -3.9600    0.7010  -21.3260 C   0  0  0  0  0  0  0  0  0  0  0  0
   -3.6040    1.0800  -20.0320 C   0  0  0  0  0  0  0  0  0  0  0  0
   -4.3280    0.6390  -18.9330 C   0  0  0  0  0  0  0  0  0  0  0  0
   -5.4170   -0.2010  -19.1480 C   0  0  0  0  0  0  0  0  0  0  0  0
   -6.3120   -0.7740  -18.2750 N   0  0  0  0  0  0  0  0  0  0  0  0
   -7.1780   -1.4530  -18.9700 N   0  0  0  0  0  0  0  0  0  0  0  0
   -8.8420   -0.9010  -23.3100 N   0  0  0  0  0  0  0  0  0  0  0  0
   -8.6500   -2.1210  -24.0290 C   0  0  0  0  0  0  0  0  0  0  0  0
   -7.7260   -2.1850  -25.0700 C   0  0  0  0  0  0  0  0  0  0  0  0
   -7.5960   -3.3420  -25.8190 C   0  0  0  0  0  0  0  0  0  0  0  0
   -9.4290   -3.2340  -23.7330 C   0  0  0  0  0  0  0  0  0  0  0  0
   -9.2900   -4.3950  -24.4680 C   0  0  0  0  0  0  0  0  0  0  0  0
   -8.3800   -4.4470  -25.5160 C   0  0  0  0  0  0  0  0  0  0  0  0
   -8.2230   -5.5580  -26.3070 O   0  0  0  0  0  0  0  0  0  0  0  0
   -9.0070   -6.7120  -26.0040 C   0  0  0  0  0  0  0  0  0  0  0  0
   -9.4280    0.2240  -24.0510 C   0  0  0  0  0  0  0  0  0  0  0  0
  -10.8840    0.4590  -23.7260 C   0  0  0  0  0  0  0  0  0  0  0  0
  -11.3060    1.6740  -23.1930 C   0  0  0  0  0  0  0  0  0  0  0  0
  -12.6150    1.8140  -22.7670 C   0  0  0  0  0  0  0  0  0  0  0  0
  -13.1490    3.3600  -22.1700 Cl  0  0  0  0  0  0  0  0  0  0  0  0
  -13.5160    0.7760  -22.8410 C   0  0  0  0  0  0  0  0  0  0  0  0
  -13.1050   -0.4190  -23.4040 C   0  0  0  0  0  0  0  0  0  0  0  0
  -11.8030   -0.5730  -23.8490 C   0  0  0  0  0  0  0  0  0  0  0  0
  2  1  2  0
  3  2  1  0
  4  3  1  0
  5  4  1  0
  6  5  2  0
  7  6  1  0
  8  7  2  0
  9  8  1  0
 10  5  1  0
 10  9  2  0
 11 10  1  0
 12 11  2  0
 12  4  1  0
 13  2  1  0
 14 13  1  0
 15 14  2  0
 16 15  1  0
 17 14  1  0
 18 17  2  0
 19 18  1  0
 19 16  2  0
 20 19  1  0
 21 20  1  0
 22 13  1  0
 23 22  1  0
 24 23  2  0
 25 24  1  0
 26 25  1  0
 27 25  2  0
 28 27  1  0
 29 28  2  0
 29 23  1  0
M  END
$$$$

     RDKit          3D

 35 37  0  0  0  0  0  0  0  0999 V2000
   -5.9750    0.0930  -18.4870 C   0  0  0  0  0  0  0  0  0  0  0  0
   -7.3470   -4.5000  -20.1550 C   0  0  0  0  0  0  0  0  0  0  0  0
   -8.8300   -2.2140  -22.3170 C   0  0  0  0  0  0  0  0  0  0  0  0
   -9.7090    0.6300  -22.7850 C   0  0  0  0  0  0  0  0  0  0  0  0
  -11.8120    3.1230  -23.5480 C   0  0  0  0  0  0  0  0  0  0  0  0
   -5.1940   -0.4620  -20.7090 C   0  0  0  0  0  0  0  0  0  0  0  0
   -4.5360    0.8360  -20.2010 C   0  0  0  0  0  0  0  0  0  0  0  0
  -11.0480   -0.5250  -24.6110 C   0  0  0  0  0  0  0  0  0  0  0  0
   -6.3640   -0.7150  -19.7310 C   0  0  1  0  0  0  0  0  0  0  0  0
  -10.2590   -1.7350  -22.5990 C   0  0  2  0  0  0  0  0  0  0  0  0
  -11.4330   -1.9830  -24.7560 C   0  0  1  0  0  0  0  0  0  0  0  0
  -10.9570   -2.7340  -23.5270 C   0  0  2  0  0  0  0  0  0  0  0  0
  -12.4470   -2.5920  -23.8060 C   0  0  2  0  0  0  0  0  0  0  0  0
  -13.1320   -3.8500  -24.3140 C   0  0  0  0  0  0  0  0  0  0  0  0
  -13.3520   -1.7380  -22.9340 C   0  0  0  0  0  0  0  0  0  0  0  0
   -7.2880    1.4430  -24.2700 C   0  0  0  0  0  0  0  0  0  0  0  0
   -7.6900    3.1880  -22.5040 C   0  0  0  0  0  0  0  0  0  0  0  0
   -8.3280    3.6360  -24.8910 C   0  0  0  0  0  0  0  0  0  0  0  0
   -6.7100   -2.1610  -19.3620 C   0  0  0  0  0  0  0  0  0  0  0  0
   -7.1930   -3.0300  -20.5400 C   0  0  2  0  0  0  0  0  0  0  0  0
   -9.6740    1.9340  -23.6170 C   0  0  2  0  0  0  0  0  0  0  0  0
  -12.7120    4.0750  -22.7300 C   0  0  1  0  0  0  0  0  0  0  0  0
   -8.2440    2.5540  -23.7960 C   0  0  1  0  0  0  0  0  0  0  0  0
   -6.4350   -5.3380  -20.4730 N   0  0  0  0  0  0  0  0  0  0  0  0
   -4.8720    0.8170  -18.7770 N   0  0  0  0  0  0  0  0  0  0  0  0
  -10.2730   -0.4600  -23.3490 N   0  0  0  0  0  0  0  0  0  0  0  0
   -8.5150   -2.5940  -21.0550 N   0  0  0  0  0  0  0  0  0  0  0  0
  -10.6120    2.8780  -23.0100 N   0  0  0  0  0  0  0  0  0  0  0  0
   -6.5780    0.0940  -17.4040 O   0  0  0  0  0  0  0  0  0  0  0  0
   -7.9700   -2.2300  -23.2180 O   0  0  0  0  0  0  0  0  0  0  0  0
   -9.2680    0.6130  -21.6220 O   0  0  0  0  0  0  0  0  0  0  0  0
  -12.2500    2.6730  -24.6080 O   0  0  0  0  0  0  0  0  0  0  0  0
  -12.2760    5.3530  -22.7360 F   0  0  0  0  0  0  0  0  0  0  0  0
  -13.9640    4.0590  -23.2230 F   0  0  0  0  0  0  0  0  0  0  0  0
  -12.7650    3.6610  -21.4540 F   0  0  0  0  0  0  0  0  0  0  0  0
  7  6  1  0
  9  1  1  0
  9  6  1  0
 10  3  1  6
 11  8  1  1
 12 11  1  0
 12 10  1  1
 13 12  1  0
 13 11  1  0
 13 14  1  6
 15 13  1  0
  9 19  1  1
 20 19  1  1
 20  2  1  0
 21  4  1  0
 22  5  1  0
 23 21  1  0
 23 18  1  6
 23 17  1  0
 23 16  1  0
 24  2  1  0
 25  1  1  0
 25  7  1  0
 26  8  1  0
 26 10  1  0
 26  4  1  0
 27  3  1  0
 27 20  1  0
 28  5  1  0
 21 28  1  1
 29  1  2  0
 30  3  2  0
 31  4  2  0
 32  5  2  0
 22 33  1  1
 34 22  1  0
 35 22  1  0
M  CHG  1  24   1
M  END
$$$$

     RDKit          3D

 29 31  0  0  0  0  0  0  0  0999 V2000
  -13.3660   -2.9230  -22.1260 Cl  0  0  0  0  0  0  0  0  0  0  0  0
  -12.1100   -2.0150  -22.8960 C   0  0  0  0  0  0  0  0  0  0  0  0
  -12.4140   -0.9700  -23.7510 C   0  0  0  0  0  0  0  0  0  0  0  0
  -14.0500   -0.5060  -24.0520 Cl  0  0  0  0  0  0  0  0  0  0  0  0
  -11.4010   -0.2440  -24.3390 C   0  0  0  0  0  0  0  0  0  0  0  0
  -10.0850   -0.5600  -24.0730 C   0  0  0  0  0  0  0  0  0  0  0  0
  -10.7920   -2.3320  -22.6160 C   0  0  0  0  0  0  0  0  0  0  0  0
   -9.7630   -1.5990  -23.2050 C   0  0  0  0  0  0  0  0  0  0  0  0
   -8.2900   -1.9200  -22.9100 C   0  0  1  0  0  0  0  0  0  0  0  0
   -8.1750   -3.3910  -22.4900 C   0  0  0  0  0  0  0  0  0  0  0  0
   -7.5000   -1.7390  -24.1390 N   0  0  0  0  0  0  0  0  0  0  0  0
   -6.8590   -0.6710  -24.6430 C   0  0  0  0  0  0  0  0  0  0  0  0
   -6.9240    0.4580  -24.1640 O   0  0  0  0  0  0  0  0  0  0  0  0
   -6.0360   -0.9000  -25.8910 C   0  0  0  0  0  0  0  0  0  0  0  0
   -5.6160   -2.2500  -25.8500 O   0  0  0  0  0  0  0  0  0  0  0  0
   -5.1040   -2.7060  -27.0950 C   0  0  0  0  0  0  0  0  0  0  0  0
   -7.8180   -0.9400  -21.7820 C   0  0  0  0  0  0  0  0  0  0  0  0
   -8.0680    0.2580  -21.8290 O   0  0  0  0  0  0  0  0  0  0  0  0
   -7.2140   -1.5040  -20.7150 N   0  0  0  0  0  0  0  0  0  0  0  0
   -6.2830   -1.0050  -19.7750 C   0  0  0  0  0  0  0  0  0  0  0  0
   -5.3220   -0.0010  -20.1370 C   0  0  0  0  0  0  0  0  0  0  0  0
   -4.8590    0.2120  -21.4630 C   0  0  0  0  0  0  0  0  0  0  0  0
   -3.8430    1.0850  -21.7240 C   0  0  0  0  0  0  0  0  0  0  0  0
   -3.2300    1.7850  -20.6990 C   0  0  0  0  0  0  0  0  0  0  0  0
   -3.6390    1.6240  -19.4090 C   0  0  0  0  0  0  0  0  0  0  0  0
   -4.6930    0.7320  -19.0910 C   0  0  0  0  0  0  0  0  0  0  0  0
   -5.0800    0.4460  -17.7640 C   0  0  0  0  0  0  0  0  0  0  0  0
   -5.9460   -0.4940  -17.4270 N   0  0  0  0  0  0  0  0  0  0  0  0
   -6.4960   -1.2080  -18.4150 C   0  0  0  0  0  0  0  0  0  0  0  0
  2  1  1  0
  3  2  2  0
  4  3  1  0
  5  3  1  0
  6  5  2  0
  7  2  1  0
  8  7  2  0
  8  6  1  0
  9  8  1  0
  9 10  1  1
 11  9  1  0
 12 11  1  0
 13 12  2  0
 14 12  1  0
 15 14  1  0
 16 15  1  0
 17  9  1  0
 18 17  2  0
 19 17  1  0
 20 19  1  0
 21 20  1  0
 22 21  2  0
 23 22  1  0
 24 23  2  0
 25 24  1  0
 26 25  2  0
 26 21  1  0
 27 26  1  0
 28 27  2  0
 29 28  1  0
 29 20  2  0
M  END
$$$$

     RDKit          3D

 21 23  0  0  0  0  0  0  0  0999 V2000
  -21.6730    3.2000  -26.6370 O   0  0  0  0  0  0  0  0  0  0  0  0
  -22.5190    3.0570  -25.7550 C   0  0  0  0  0  0  0  0  0  0  0  0
  -22.4880    3.7240  -24.6140 N   0  0  0  0  0  0  0  0  0  0  0  0
  -23.6550    2.0690  -25.9170 C   0  0  1  0  0  0  0  0  0  0  0  0
  -24.0110    1.7810  -27.4010 C   0  0  2  0  0  0  0  0  0  0  0  0
  -24.9040    2.8060  -28.0630 C   0  0  0  0  0  0  0  0  0  0  0  0
  -25.6780    3.6730  -27.3040 C   0  0  0  0  0  0  0  0  0  0  0  0
  -26.4220    4.6670  -27.9090 C   0  0  0  0  0  0  0  0  0  0  0  0
  -26.4130    4.8020  -29.2790 C   0  0  0  0  0  0  0  0  0  0  0  0
  -25.6640    3.9380  -30.0460 C   0  0  0  0  0  0  0  0  0  0  0  0
  -24.9180    2.9400  -29.4420 C   0  0  0  0  0  0  0  0  0  0  0  0
  -24.6380    0.3950  -27.2670 C   0  0  0  0  0  0  0  0  0  0  0  0
  -23.6340   -0.2910  -26.4460 N   0  0  1  0  0  0  0  0  0  0  0  0
  -23.2660    0.6830  -25.4090 C   0  0  0  0  0  0  0  0  0  0  0  0
  -24.0530   -1.5850  -25.9030 C   0  0  0  0  0  0  0  0  0  0  0  0
  -22.8400   -2.3640  -25.4660 C   0  0  0  0  0  0  0  0  0  0  0  0
  -21.8680   -2.7360  -26.3790 C   0  0  0  0  0  0  0  0  0  0  0  0
  -20.6930   -3.2780  -26.0530 N   0  0  0  0  0  0  0  0  0  0  0  0
  -20.4540   -3.4700  -24.7550 C   0  0  0  0  0  0  0  0  0  0  0  0
  -21.3610   -3.1560  -23.7660 C   0  0  0  0  0  0  0  0  0  0  0  0
  -22.5700   -2.6020  -24.1320 C   0  0  0  0  0  0  0  0  0  0  0  0
  2  1  2  0
  3  2  1  0
  4  2  1  6
  5  4  1  0
  5  6  1  1
  7  6  2  0
  8  7  1  0
  9  8  2  0
 10  9  1  0
 11 10  2  0
 11  6  1  0
 12  5  1  0
 13 12  1  0
 14 13  1  0
 14  4  1  0
 13 15  1  1
 16 15  1  0
 17 16  2  0
 18 17  1  0
 19 18  2  0
 20 19  1  0
 21 16  1  0
 21 20  2  0
M  CHG  1  13   1
M  END
$$$$

     RDKit          3D

 17 18  0  0  0  0  0  0  0  0999 V2000
  -25.9220    3.2920  -14.0850 C   0  0  0  0  0  0  0  0  0  0  0  0
  -25.5110    2.9500  -12.6480 C   0  0  0  0  0  0  0  0  0  0  0  0
  -25.3030    3.9380  -11.6920 C   0  0  0  0  0  0  0  0  0  0  0  0
  -24.9490    3.6010  -10.4000 C   0  0  0  0  0  0  0  0  0  0  0  0
  -24.7990    2.2760  -10.0530 C   0  0  0  0  0  0  0  0  0  0  0  0
  -23.1780    1.2950   -8.3880 C   0  0  0  0  0  0  0  0  0  0  0  0
  -22.8840    0.9590   -6.9120 C   0  0  2  0  0  0  0  0  0  0  0  0
  -23.2600   -0.2310   -6.6620 C   0  0  0  0  0  0  0  0  0  0  0  0
  -23.9420   -0.1790   -5.3090 C   0  0  0  0  0  0  0  0  0  0  0  0
  -24.6550    1.1580   -5.4270 C   0  0  0  0  0  0  0  0  0  0  0  0
  -25.0160    1.2830  -10.9900 C   0  0  0  0  0  0  0  0  0  0  0  0
  -25.3700    1.6180  -12.2870 C   0  0  0  0  0  0  0  0  0  0  0  0
  -25.9790    4.6590  -14.5690 N   0  0  0  0  0  0  0  0  0  0  0  0
  -24.4380    1.9370   -8.7000 N   0  0  0  0  0  0  0  0  0  0  0  0
  -26.2210    2.4170  -14.8340 O   0  0  0  0  0  0  0  0  0  0  0  0
  -22.4050    1.0300   -9.2500 O   0  0  0  0  0  0  0  0  0  0  0  0
  -23.7660    1.9110   -5.9440 O   0  0  0  0  0  0  0  0  0  0  0  0
  2  1  1  0
  3  2  2  0
  4  3  1  0
  5  4  2  0
  7  6  1  6
  8  7  1  0
  9  8  1  0
 10  9  1  0
 11  5  1  0
 12 11  2  0
 12  2  1  0
 13  1  1  0
 14  6  1  0
 14  5  1  0
 15  1  2  0
 16  6  2  0
 17  7  1  0
 17 10  1  0
M  END
$$$$

     RDKit          3D

 25 28  0  0  0  0  0  0  0  0999 V2000
  -13.6140   -2.8450  -21.8410 Cl  0  0  0  0  0  0  0  0  0  0  0  0
  -12.2890   -2.0910  -22.6720 C   0  0  0  0  0  0  0  0  0  0  0  0
  -12.5120   -1.1460  -23.6670 C   0  0  0  0  0  0  0  0  0  0  0  0
  -14.1160   -0.7890  -24.2190 Cl  0  0  0  0  0  0  0  0  0  0  0  0
  -10.9970   -2.4080  -22.2960 C   0  0  0  0  0  0  0  0  0  0  0  0
   -9.9060   -1.7840  -22.9010 C   0  0  0  0  0  0  0  0  0  0  0  0
  -10.1460   -0.8220  -23.8980 C   0  0  0  0  0  0  0  0  0  0  0  0
  -11.4500   -0.5020  -24.2660 C   0  0  0  0  0  0  0  0  0  0  0  0
   -8.4810   -2.1750  -22.5540 C   0  0  1  0  0  0  0  0  0  0  0  0
   -7.6040   -2.0200  -23.8090 C   0  0  0  0  0  0  0  0  0  0  0  0
   -7.6970   -0.5990  -24.3330 C   0  0  0  0  0  0  0  0  0  0  0  0
   -9.0930   -0.2150  -24.5540 N   0  0  0  0  0  0  0  0  0  0  0  0
   -7.9630   -1.2870  -21.4210 C   0  0  0  0  0  0  0  0  0  0  0  0
   -8.5140   -0.2320  -21.1100 O   0  0  0  0  0  0  0  0  0  0  0  0
   -6.8410   -1.7510  -20.8160 N   0  0  0  0  0  0  0  0  0  0  0  0
   -6.0990   -1.1330  -19.7930 C   0  0  0  0  0  0  0  0  0  0  0  0
   -5.1470   -0.1270  -20.1490 C   0  0  0  0  0  0  0  0  0  0  0  0
   -4.6040    0.0250  -21.4470 C   0  0  0  0  0  0  0  0  0  0  0  0
   -3.6590    0.9870  -21.6670 C   0  0  0  0  0  0  0  0  0  0  0  0
   -3.2100    1.8320  -20.7250 N   0  0  0  0  0  0  0  0  0  0  0  0
   -3.7070    1.7090  -19.4970 C   0  0  0  0  0  0  0  0  0  0  0  0
   -4.6750    0.7400  -19.1290 C   0  0  0  0  0  0  0  0  0  0  0  0
   -5.1550    0.5280  -17.8170 C   0  0  0  0  0  0  0  0  0  0  0  0
   -5.9810   -0.4470  -17.4730 N   0  0  0  0  0  0  0  0  0  0  0  0
   -6.4160   -1.2600  -18.4430 C   0  0  0  0  0  0  0  0  0  0  0  0
  2  1  1  0
  3  2  2  0
  4  3  1  0
  5  2  1  0
  6  5  2  0
  7  6  1  0
  8  3  1  0
  8  7  2  0
  9  6  1  0
 10  9  1  0
 11 10  1  0
 12 11  1  0
 12  7  1  0
  9 13  1  1
 14 13  2  0
 15 13  1  0
 16 15  1  0
 17 16  1  0
 18 17  2  0
 19 18  1  0
 20 19  2  0
 21 20  1  0
 22 21  2  0
 22 17  1  0
 23 22  1  0
 24 23  2  0
 25 24  1  0
 25 16  2  0
M  END
$$$$

     RDKit          3D

 17 18  0  0  0  0  0  0  0  0999 V2000
   -8.6530   -0.2250  -21.2330 O   0  0  0  0  0  0  0  0  0  0  0  0
   -8.0420   -1.2170  -21.6050 C   0  0  0  0  0  0  0  0  0  0  0  0
   -8.4910   -2.0450  -22.7930 C   0  0  0  0  0  0  0  0  0  0  0  0
   -9.9630   -1.8530  -23.0740 C   0  0  0  0  0  0  0  0  0  0  0  0
  -10.4010   -0.9810  -24.0630 C   0  0  0  0  0  0  0  0  0  0  0  0
  -11.7500   -0.7170  -24.2260 C   0  0  0  0  0  0  0  0  0  0  0  0
  -12.6890   -1.3300  -23.4120 C   0  0  0  0  0  0  0  0  0  0  0  0
  -10.9070   -2.4880  -22.2770 C   0  0  0  0  0  0  0  0  0  0  0  0
  -12.2480   -2.2160  -22.4530 C   0  0  0  0  0  0  0  0  0  0  0  0
  -13.4100   -3.0550  -21.4720 Cl  0  0  0  0  0  0  0  0  0  0  0  0
   -6.9120   -1.6340  -21.0280 N   0  0  0  0  0  0  0  0  0  0  0  0
   -6.2740   -0.9860  -19.9590 C   0  0  0  0  0  0  0  0  0  0  0  0
   -6.8540   -0.9960  -18.6930 C   0  0  0  0  0  0  0  0  0  0  0  0
   -6.3600   -0.3180  -17.6550 N   0  0  0  0  0  0  0  0  0  0  0  0
   -5.2510    0.4010  -17.8600 C   0  0  0  0  0  0  0  0  0  0  0  0
   -4.5960    0.4660  -19.0720 C   0  0  0  0  0  0  0  0  0  0  0  0
   -5.1220   -0.2350  -20.1400 C   0  0  0  0  0  0  0  0  0  0  0  0
  2  1  2  0
  3  2  1  0
  4  3  1  0
  5  4  2  0
  6  5  1  0
  7  6  2  0
  8  4  1  0
  9  8  2  0
  9  7  1  0
 10  9  1  0
 11  2  1  0
 12 11  1  0
 13 12  2  0
 14 13  1  0
 15 14  2  0
 16 15  1  0
 17 12  1  0
 17 16  2  0
M  END
$$$$

     RDKit          3D

 18 19  0  0  0  0  0  0  0  0999 V2000
   -1.3870    2.8180  -25.5230 C   0  0  0  0  0  0  0  0  0  0  0  0
   -0.4050    3.5460  -26.1820 C   0  0  0  0  0  0  0  0  0  0  0  0
    0.9150    3.1170  -26.2000 C   0  0  0  0  0  0  0  0  0  0  0  0
    1.2630    1.9440  -25.5490 C   0  0  0  0  0  0  0  0  0  0  0  0
    0.2870    1.2140  -24.8810 C   0  0  0  0  0  0  0  0  0  0  0  0
   -1.0400    1.6400  -24.8670 C   0  0  0  0  0  0  0  0  0  0  0  0
   -2.0790    0.8050  -24.1200 C   0  0  0  0  0  0  0  0  0  0  0  0
   -4.2320    0.6580  -22.7550 C   0  0  0  0  0  0  0  0  0  0  0  0
   -3.7460    0.6190  -21.3040 C   0  0  0  0  0  0  0  0  0  0  0  0
   -4.7410    0.1280  -20.2490 C   0  0  0  0  0  0  0  0  0  0  0  0
   -5.7240   -0.8270  -20.5110 C   0  0  0  0  0  0  0  0  0  0  0  0
   -6.5670   -1.2050  -19.4650 C   0  0  0  0  0  0  0  0  0  0  0  0
   -5.5280    0.2120  -18.0010 C   0  0  0  0  0  0  0  0  0  0  0  0
   -4.6520    0.6480  -18.9810 C   0  0  0  0  0  0  0  0  0  0  0  0
   -2.6840    3.2670  -25.5310 F   0  0  0  0  0  0  0  0  0  0  0  0
   -3.2400    1.4340  -23.4990 N   0  0  0  0  0  0  0  0  0  0  0  0
   -6.4530   -0.6850  -18.2510 N   0  0  0  0  0  0  0  0  0  0  0  0
   -1.9150   -0.3690  -24.0480 O   0  0  0  0  0  0  0  0  0  0  0  0
  2  1  2  0
  3  2  1  0
  4  3  2  0
  5  4  1  0
  6  5  2  0
  6  1  1  0
  7  6  1  0
  9  8  1  0
 10  9  1  0
 11 10  2  0
 12 11  1  0
 14 13  2  0
 14 10  1  0
 15  1  1  0
 16  8  1  0
 16  7  1  0
 17 13  1  0
 17 12  2  0
 18  7  2  0
M  END
$$$$

     RDKit          3D

 17 18  0  0  0  0  0  0  0  0999 V2000
   -5.9960   -6.1160  -21.8730 N   0  0  0  0  0  0  0  0  0  0  0  0
   -7.3180   -4.5500  -20.4790 C   0  0  0  0  0  0  0  0  0  0  0  0
   -5.3570   -5.7130  -19.7640 O   0  0  0  0  0  0  0  0  0  0  0  0
   -6.1540   -5.5140  -20.6730 C   0  0  0  0  0  0  0  0  0  0  0  0
   -6.8300   -5.8960  -23.0550 C   0  0  0  0  0  0  0  0  0  0  0  0
   -5.9830   -5.3660  -24.1830 C   0  0  0  0  0  0  0  0  0  0  0  0
   -4.0620   -6.5890  -23.2850 C   0  0  0  0  0  0  0  0  0  0  0  0
   -4.9310   -7.0790  -22.1540 C   0  0  0  0  0  0  0  0  0  0  0  0
   -3.0230   -4.8290  -25.7880 C   0  0  0  0  0  0  0  0  0  0  0  0
   -1.7160   -4.8980  -25.3710 C   0  0  0  0  0  0  0  0  0  0  0  0
   -1.1030   -3.6210  -25.4280 C   0  0  0  0  0  0  0  0  0  0  0  0
   -1.9130   -2.6660  -25.9460 C   0  0  0  0  0  0  0  0  0  0  0  0
   -4.9000   -6.3210  -24.4690 N   0  0  0  0  0  0  0  0  0  0  0  0
   -3.3560   -7.3440  -26.1010 O   0  0  0  0  0  0  0  0  0  0  0  0
   -5.1340   -5.8120  -26.8740 O   0  0  0  0  0  0  0  0  0  0  0  0
   -4.1400   -6.1660  -25.9080 S   0  0  2  0  0  0  0  0  0  0  0  0
   -3.4990   -3.2350  -26.1930 S   0  0  0  0  0  0  0  0  0  0  0  0
  4  1  1  0
  4  2  1  0
  4  3  2  0
  5  1  1  0
  6  5  1  0
  8  1  1  0
  8  7  1  0
 10  9  2  0
 11 10  1  0
 12 11  2  0
 13  6  1  0
 13  7  1  0
 16 15  2  0
 16 14  2  0
 16 13  1  1
 16  9  1  0
 17 12  1  0
 17  9  1  0
M  END
$$$$

     RDKit          3D

 35 38  0  0  0  0  0  0  0  0999 V2000
  -10.5240    1.9290  -24.4440 O   0  0  0  0  0  0  0  0  0  0  0  0
  -10.1560    0.7900  -24.2260 C   0  0  0  0  0  0  0  0  0  0  0  0
   -8.9040    0.3600  -24.5580 N   0  0  0  0  0  0  0  0  0  0  0  0
   -8.0170    1.2310  -25.3120 C   0  0  0  0  0  0  0  0  0  0  0  0
   -7.1860    2.2280  -24.5190 C   0  0  0  0  0  0  0  0  0  0  0  0
   -6.1890    2.7370  -25.0260 O   0  0  0  0  0  0  0  0  0  0  0  0
   -7.5860    2.5150  -23.2830 N   0  0  0  0  0  0  0  0  0  0  0  0
   -6.8760    3.4550  -22.4340 C   0  0  0  0  0  0  0  0  0  0  0  0
  -11.0380   -0.1990  -23.5840 C   0  0  0  0  0  0  0  0  0  0  0  0
  -12.4140    0.0360  -23.5590 C   0  0  0  0  0  0  0  0  0  0  0  0
  -13.2700   -0.8720  -22.9660 C   0  0  0  0  0  0  0  0  0  0  0  0
  -12.7490   -2.0180  -22.4050 C   0  0  0  0  0  0  0  0  0  0  0  0
  -13.8070   -3.0910  -21.5390 Cl  0  0  0  0  0  0  0  0  0  0  0  0
  -11.3930   -2.2910  -22.4350 C   0  0  0  0  0  0  0  0  0  0  0  0
  -10.5190   -1.3660  -23.0070 C   0  0  0  0  0  0  0  0  0  0  0  0
   -9.0150   -1.5470  -22.9420 C   0  0  1  0  0  0  0  0  0  0  0  0
   -8.4240   -1.0100  -24.2670 C   0  0  1  0  0  0  0  0  0  0  0  0
   -8.6820   -1.9550  -25.4310 C   0  0  0  0  0  0  0  0  0  0  0  0
   -8.4200   -0.7650  -21.7710 C   0  0  0  0  0  0  0  0  0  0  0  0
   -8.8300    0.3550  -21.4630 O   0  0  0  0  0  0  0  0  0  0  0  0
   -7.4130   -1.3880  -21.1220 N   0  0  0  0  0  0  0  0  0  0  0  0
   -6.6680   -0.8970  -20.0290 C   0  0  0  0  0  0  0  0  0  0  0  0
   -5.5360   -0.0620  -20.2900 C   0  0  0  0  0  0  0  0  0  0  0  0
   -4.8240    0.4730  -19.1750 C   0  0  0  0  0  0  0  0  0  0  0  0
   -5.2700    0.1130  -17.8770 C   0  0  0  0  0  0  0  0  0  0  0  0
   -6.3250   -0.6550  -17.6380 N   0  0  0  0  0  0  0  0  0  0  0  0
   -6.9950   -1.1360  -18.6950 C   0  0  0  0  0  0  0  0  0  0  0  0
   -5.0940    0.2830  -21.5930 C   0  0  0  0  0  0  0  0  0  0  0  0
   -4.0290    1.1170  -21.7840 C   0  0  0  0  0  0  0  0  0  0  0  0
   -3.3600    1.6410  -20.6870 C   0  0  0  0  0  0  0  0  0  0  0  0
   -3.7310    1.3380  -19.4090 C   0  0  0  0  0  0  0  0  0  0  0  0
   -1.9720    2.7100  -20.9410 S   0  0  2  0  0  0  0  0  0  0  0  0
   -1.1030    2.0900  -21.9010 O   0  0  0  0  0  0  0  0  0  0  0  0
   -1.4260    3.0550  -19.6560 O   0  0  0  0  0  0  0  0  0  0  0  0
   -2.6550    4.1590  -21.6550 C   0  0  0  0  0  0  0  0  0  0  0  0
  2  1  2  0
  3  2  1  0
  4  3  1  0
  5  4  1  0
  6  5  2  0
  7  5  1  0
  8  7  1  0
  9  2  1  0
 10  9  2  0
 11 10  1  0
 12 11  2  0
 13 12  1  0
 14 12  1  0
 15 14  2  0
 15  9  1  0
 16 15  1  0
 17 16  1  0
 17  3  1  0
 17 18  1  6
 16 19  1  1
 20 19  2  0
 21 19  1  0
 22 21  1  0
 23 22  2  0
 24 23  1  0
 25 24  2  0
 26 25  1  0
 27 26  2  0
 27 22  1  0
 28 23  1  0
 29 28  2  0
 30 29  1  0
 31 30  2  0
 31 24  1  0
 32 30  1  0
 33 32  2  0
 34 32  2  0
 32 35  1  6
M  END
$$$$

     RDKit          3D

 25 28  0  0  0  0  0  0  0  0999 V2000
  -13.8450   -2.7700  -21.3950 Cl  0  0  0  0  0  0  0  0  0  0  0  0
  -12.7250   -1.9730  -22.4680 C   0  0  0  0  0  0  0  0  0  0  0  0
  -13.2170   -1.0890  -23.4190 C   0  0  0  0  0  0  0  0  0  0  0  0
  -12.3320   -0.3760  -24.2100 C   0  0  0  0  0  0  0  0  0  0  0  0
  -11.3690   -2.1830  -22.2870 C   0  0  0  0  0  0  0  0  0  0  0  0
  -10.4830   -1.4420  -23.0580 C   0  0  0  0  0  0  0  0  0  0  0  0
  -10.9650   -0.5540  -24.0120 C   0  0  0  0  0  0  0  0  0  0  0  0
   -9.8950    0.0480  -24.6690 N   0  0  0  0  0  0  0  0  0  0  0  0
   -8.7010   -0.3650  -24.1790 C   0  0  0  0  0  0  0  0  0  0  0  0
   -7.5970    0.0120  -24.5500 O   0  0  0  0  0  0  0  0  0  0  0  0
   -8.9730   -1.3720  -23.0390 C   0  0  2  0  0  0  0  0  0  0  0  0
   -8.3440   -2.7290  -23.4340 C   0  0  0  0  0  0  0  0  0  0  0  0
   -8.4090   -0.7630  -21.7040 C   0  0  0  0  0  0  0  0  0  0  0  0
   -8.8220    0.3270  -21.3310 O   0  0  0  0  0  0  0  0  0  0  0  0
   -7.4290   -1.4480  -21.0660 N   0  0  0  0  0  0  0  0  0  0  0  0
   -6.6720   -0.9970  -19.9670 C   0  0  0  0  0  0  0  0  0  0  0  0
   -5.5610   -0.1340  -20.2230 C   0  0  0  0  0  0  0  0  0  0  0  0
   -5.0530    0.1380  -21.5220 C   0  0  0  0  0  0  0  0  0  0  0  0
   -3.9940    0.9830  -21.7000 C   0  0  0  0  0  0  0  0  0  0  0  0
   -3.3890    1.6010  -20.6140 C   0  0  0  0  0  0  0  0  0  0  0  0
   -3.8380    1.3700  -19.3430 C   0  0  0  0  0  0  0  0  0  0  0  0
   -4.9280    0.4910  -19.1120 C   0  0  0  0  0  0  0  0  0  0  0  0
   -5.4200    0.1900  -17.8170 C   0  0  0  0  0  0  0  0  0  0  0  0
   -6.4250   -0.6400  -17.5760 N   0  0  0  0  0  0  0  0  0  0  0  0
   -7.0240   -1.2110  -18.6310 C   0  0  0  0  0  0  0  0  0  0  0  0
  2  1  1  0
  3  2  2  0
  4  3  1  0
  5  2  1  0
  6  5  2  0
  7  4  2  0
  7  6  1  0
  8  7  1  0
  9  8  1  0
 10  9  2  0
 11  9  1  0
 11  6  1  0
 11 12  1  6
 13 11  1  0
 14 13  2  0
 15 13  1  0
 16 15  1  0
 17 16  1  0
 18 17  2  0
 19 18  1  0
 20 19  2  0
 21 20  1  0
 22 17  1  0
 22 21  2  0
 23 22  1  0
 24 23  2  0
 25 24  1  0
 25 16  2  0
M  END
$$$$

     RDKit          3D

 26 29  0  0  0  0  0  0  0  0999 V2000
  -13.7300   -2.9710  -21.5440 Cl  0  0  0  0  0  0  0  0  0  0  0  0
  -12.5020   -2.2880  -22.5580 C   0  0  0  0  0  0  0  0  0  0  0  0
  -12.8460   -1.4090  -23.5630 C   0  0  0  0  0  0  0  0  0  0  0  0
  -14.1530   -1.2320  -23.8670 F   0  0  0  0  0  0  0  0  0  0  0  0
  -11.8930   -0.7680  -24.3160 C   0  0  0  0  0  0  0  0  0  0  0  0
  -11.1720   -2.5660  -22.3160 C   0  0  0  0  0  0  0  0  0  0  0  0
  -10.1710   -1.9470  -23.0640 C   0  0  0  0  0  0  0  0  0  0  0  0
  -10.5600   -1.0420  -24.0640 C   0  0  0  0  0  0  0  0  0  0  0  0
   -9.6670   -0.3910  -24.8860 O   0  0  0  0  0  0  0  0  0  0  0  0
   -8.2610   -0.5550  -24.5960 C   0  0  0  0  0  0  0  0  0  0  0  0
   -7.9210   -1.9390  -24.1050 C   0  0  0  0  0  0  0  0  0  0  0  0
   -8.7040   -2.2390  -22.8100 C   0  0  1  0  0  0  0  0  0  0  0  0
   -8.2710   -1.3470  -21.6440 C   0  0  0  0  0  0  0  0  0  0  0  0
   -9.0320   -0.5300  -21.1360 O   0  0  0  0  0  0  0  0  0  0  0  0
   -6.9650   -1.4370  -21.3100 N   0  0  0  0  0  0  0  0  0  0  0  0
   -6.3080   -1.0310  -20.1360 C   0  0  0  0  0  0  0  0  0  0  0  0
   -6.8380   -1.0770  -18.8460 C   0  0  0  0  0  0  0  0  0  0  0  0
   -6.3250   -0.4740  -17.7640 N   0  0  0  0  0  0  0  0  0  0  0  0
   -5.2410    0.2610  -17.9380 C   0  0  0  0  0  0  0  0  0  0  0  0
   -5.1370   -0.2300  -20.3200 C   0  0  0  0  0  0  0  0  0  0  0  0
   -4.5800    0.0360  -21.5990 C   0  0  0  0  0  0  0  0  0  0  0  0
   -3.5800    0.9470  -21.7020 C   0  0  0  0  0  0  0  0  0  0  0  0
   -3.0910    1.2300  -22.9390 F   0  0  0  0  0  0  0  0  0  0  0  0
   -4.6040    0.4510  -19.1890 C   0  0  0  0  0  0  0  0  0  0  0  0
   -3.5420    1.3670  -19.3800 C   0  0  0  0  0  0  0  0  0  0  0  0
   -3.0440    1.6130  -20.6260 C   0  0  0  0  0  0  0  0  0  0  0  0
  2  1  1  0
  3  2  2  0
  4  3  1  0
  5  3  1  0
  6  2  1  0
  7  6  2  0
  8  5  2  0
  8  7  1  0
  9  8  1  0
 10  9  1  0
 11 10  1  0
 12 11  1  0
 12  7  1  0
 12 13  1  1
 14 13  2  0
 15 13  1  0
 16 15  1  0
 17 16  2  0
 18 17  1  0
 19 18  2  0
 20 16  1  0
 21 20  2  0
 22 21  1  0
 23 22  1  0
 24 20  1  0
 24 19  1  0
 25 24  2  0
 26 25  1  0
 26 22  2  0
M  END
$$$$

     RDKit          3D

 22 23  0  0  0  0  0  0  0  0999 V2000
  -13.8000   -2.7120  -21.6700 Cl  0  0  0  0  0  0  0  0  0  0  0  0
  -12.4820   -2.0800  -22.6230 C   0  0  0  0  0  0  0  0  0  0  0  0
  -12.7510   -1.1880  -23.6380 C   0  0  0  0  0  0  0  0  0  0  0  0
  -11.6910   -0.6850  -24.3770 C   0  0  0  0  0  0  0  0  0  0  0  0
  -10.3890   -1.0610  -24.0770 C   0  0  0  0  0  0  0  0  0  0  0  0
  -11.1920   -2.4710  -22.3170 C   0  0  0  0  0  0  0  0  0  0  0  0
  -10.1250   -1.9360  -23.0350 C   0  0  0  0  0  0  0  0  0  0  0  0
   -8.7030   -2.2470  -22.6200 C   0  0  0  0  0  0  0  0  0  0  0  0
   -8.1830   -1.2940  -21.5650 C   0  0  0  0  0  0  0  0  0  0  0  0
   -8.8550   -0.3470  -21.1550 O   0  0  0  0  0  0  0  0  0  0  0  0
   -6.9400   -1.5740  -21.1140 N   0  0  0  0  0  0  0  0  0  0  0  0
   -6.3610   -0.9830  -19.9670 C   0  0  0  0  0  0  0  0  0  0  0  0
   -6.8360   -1.1290  -18.6650 C   0  0  0  0  0  0  0  0  0  0  0  0
   -6.3000   -0.5170  -17.6040 N   0  0  0  0  0  0  0  0  0  0  0  0
   -5.2410    0.2710  -17.8120 C   0  0  0  0  0  0  0  0  0  0  0  0
   -4.6770    0.5020  -19.0510 C   0  0  0  0  0  0  0  0  0  0  0  0
   -5.2500   -0.1320  -20.1410 C   0  0  0  0  0  0  0  0  0  0  0  0
   -4.6880   -0.1290  -21.4300 O   0  0  0  0  0  0  0  0  0  0  0  0
   -4.7160    1.0850  -22.2870 C   0  0  2  0  0  0  0  0  0  0  0  0
   -6.0600    1.7770  -22.1920 C   0  0  0  0  0  0  0  0  0  0  0  0
   -4.4800    0.5560  -23.6820 C   0  0  0  0  0  0  0  0  0  0  0  0
   -3.5940    2.0090  -21.8650 C   0  0  0  0  0  0  0  0  0  0  0  0
  2  1  1  0
  3  2  2  0
  4  3  1  0
  5  4  2  0
  6  2  1  0
  7  6  2  0
  7  5  1  0
  8  7  1  0
  9  8  1  0
 10  9  2  0
 11  9  1  0
 12 11  1  0
 13 12  2  0
 14 13  1  0
 15 14  2  0
 16 15  1  0
 17 12  1  0
 17 16  2  0
 18 17  1  0
 19 18  1  0
 19 20  1  6
 21 19  1  0
 22 19  1  0
M  END
$$$$

     RDKit          3D

 18 19  0  0  0  0  0  0  0  0999 V2000
   -8.3240   -2.5650  -23.6660 S   0  0  1  0  0  0  0  0  0  0  0  0
  -12.5010   -0.8280  -23.4800 C   0  0  0  0  0  0  0  0  0  0  0  0
   -9.4090   -6.5640  -25.4770 N   0  0  0  0  0  0  0  0  0  0  0  0
   -7.8630   -4.7630  -26.9810 C   0  0  0  0  0  0  0  0  0  0  0  0
  -10.8950   -2.4860  -22.7770 C   0  0  0  0  0  0  0  0  0  0  0  0
   -7.4190   -1.4680  -23.5070 O   0  0  0  0  0  0  0  0  0  0  0  0
   -7.0560   -3.8060  -27.8190 C   0  0  0  0  0  0  0  0  0  0  0  0
  -11.5580   -0.2880  -24.3440 C   0  0  0  0  0  0  0  0  0  0  0  0
   -8.1600   -6.0390  -27.4500 C   0  0  0  0  0  0  0  0  0  0  0  0
   -9.9630   -1.9190  -23.6340 C   0  0  0  0  0  0  0  0  0  0  0  0
   -8.0690   -3.1150  -25.1810 N   0  0  0  0  0  0  0  0  0  0  0  0
   -8.2550   -3.6690  -22.7600 O   0  0  0  0  0  0  0  0  0  0  0  0
   -8.3610   -4.4030  -25.7170 C   0  0  0  0  0  0  0  0  0  0  0  0
  -10.2870   -0.8330  -24.4310 C   0  0  0  0  0  0  0  0  0  0  0  0
   -9.1300   -5.3390  -25.0180 C   0  0  0  0  0  0  0  0  0  0  0  0
  -12.1580   -1.9290  -22.7220 C   0  0  0  0  0  0  0  0  0  0  0  0
   -8.9220   -6.8920  -26.6760 C   0  0  0  0  0  0  0  0  0  0  0  0
  -13.3600   -2.6630  -21.7020 Cl  0  0  0  0  0  0  0  0  0  0  0  0
  6  1  2  0
  7  4  1  0
  8  2  2  0
  9  4  1  0
 10  5  1  0
 10  1  1  0
  1 11  1  6
 12  1  2  0
 13 11  1  0
 13  4  2  0
 14  8  1  0
 14 10  2  0
 15  3  2  0
 15 13  1  0
 16  2  1  0
 16  5  2  0
 17  9  2  0
 17  3  1  0
 18 16  1  0
M  END
$$$$

     RDKit          3D

 23 25  0  0  0  0  0  0  0  0999 V2000
  -13.6640   -3.0760  -21.9560 Cl  0  0  0  0  0  0  0  0  0  0  0  0
  -12.3350   -2.2420  -22.6870 C   0  0  0  0  0  0  0  0  0  0  0  0
  -12.5490   -1.2370  -23.6170 C   0  0  0  0  0  0  0  0  0  0  0  0
  -14.1490   -0.6680  -23.9610 Cl  0  0  0  0  0  0  0  0  0  0  0  0
  -11.4700   -0.5990  -24.2080 C   0  0  0  0  0  0  0  0  0  0  0  0
  -10.1880   -0.9490  -23.8370 C   0  0  0  0  0  0  0  0  0  0  0  0
  -11.0460   -2.5850  -22.3180 C   0  0  0  0  0  0  0  0  0  0  0  0
   -9.9560   -1.9230  -22.8830 C   0  0  0  0  0  0  0  0  0  0  0  0
   -8.5400   -2.2560  -22.4410 C   0  0  1  0  0  0  0  0  0  0  0  0
   -7.6600   -2.5760  -23.5690 N   0  0  0  0  0  0  0  0  0  0  0  0
   -7.9300   -1.1920  -21.4950 C   0  0  0  0  0  0  0  0  0  0  0  0
   -8.3450   -0.0240  -21.4740 O   0  0  0  0  0  0  0  0  0  0  0  0
   -7.0420   -1.7000  -20.6170 N   0  0  0  0  0  0  0  0  0  0  0  0
   -6.0650   -1.1080  -19.8040 C   0  0  0  0  0  0  0  0  0  0  0  0
   -5.1470   -0.1020  -20.2540 C   0  0  0  0  0  0  0  0  0  0  0  0
   -4.7000    0.0210  -21.5970 C   0  0  0  0  0  0  0  0  0  0  0  0
   -3.6830    0.8760  -21.9260 C   0  0  0  0  0  0  0  0  0  0  0  0
   -3.0550    1.6400  -20.9490 C   0  0  0  0  0  0  0  0  0  0  0  0
   -3.4560    1.5720  -19.6480 C   0  0  0  0  0  0  0  0  0  0  0  0
   -4.5130    0.7090  -19.2610 C   0  0  0  0  0  0  0  0  0  0  0  0
   -4.8880    0.5150  -17.9140 C   0  0  0  0  0  0  0  0  0  0  0  0
   -5.7340   -0.4130  -17.5040 N   0  0  0  0  0  0  0  0  0  0  0  0
   -6.2580   -1.2160  -18.4320 C   0  0  0  0  0  0  0  0  0  0  0  0
  2  1  1  0
  3  2  2  0
  4  3  1  0
  5  3  1  0
  6  5  2  0
  7  2  1  0
  8  7  2  0
  8  6  1  0
  9  8  1  0
  9 10  1  6
 11  9  1  0
 12 11  2  0
 13 11  1  0
 14 13  1  0
 15 14  1  0
 16 15  2  0
 17 16  1  0
 18 17  2  0
 19 18  1  0
 20 19  2  0
 20 15  1  0
 21 20  1  0
 22 21  2  0
 23 22  1  0
 23 14  2  0
M  CHG  1  10   1
M  END
$$$$

     RDKit          3D

 21 23  0  0  0  0  0  0  0  0999 V2000
   -8.7080   -0.2030  -21.3810 O   0  0  0  0  0  0  0  0  0  0  0  0
   -8.0830   -1.2080  -21.7050 C   0  0  0  0  0  0  0  0  0  0  0  0
   -8.5460   -2.0950  -22.8440 C   0  0  0  0  0  0  0  0  0  0  0  0
  -10.0210   -1.8940  -23.1120 C   0  0  0  0  0  0  0  0  0  0  0  0
  -10.4550   -0.9970  -24.0790 C   0  0  0  0  0  0  0  0  0  0  0  0
  -11.8030   -0.7170  -24.2330 C   0  0  0  0  0  0  0  0  0  0  0  0
  -12.7450   -1.3330  -23.4240 C   0  0  0  0  0  0  0  0  0  0  0  0
  -10.9700   -2.5340  -22.3180 C   0  0  0  0  0  0  0  0  0  0  0  0
  -12.3090   -2.2430  -22.4820 C   0  0  0  0  0  0  0  0  0  0  0  0
  -13.4810   -3.0840  -21.4970 Cl  0  0  0  0  0  0  0  0  0  0  0  0
   -7.0740   -1.7040  -20.9870 N   0  0  0  0  0  0  0  0  0  0  0  0
   -6.2720   -1.2040  -19.9450 C   0  0  0  0  0  0  0  0  0  0  0  0
   -5.2580   -0.2550  -20.2840 C   0  0  0  0  0  0  0  0  0  0  0  0
   -4.8150   -0.2190  -21.5770 N   0  0  0  0  0  0  0  0  0  0  0  0
   -3.7370    0.5140  -21.8300 C   0  0  0  0  0  0  0  0  0  0  0  0
   -3.0250    1.2210  -20.8680 C   0  0  0  0  0  0  0  0  0  0  0  0
   -3.4630    1.2040  -19.5790 C   0  0  0  0  0  0  0  0  0  0  0  0
   -4.6320    0.4790  -19.2510 C   0  0  0  0  0  0  0  0  0  0  0  0
   -5.1270    0.2950  -17.9380 C   0  0  0  0  0  0  0  0  0  0  0  0
   -6.1440   -0.5010  -17.6320 N   0  0  0  0  0  0  0  0  0  0  0  0
   -6.6790   -1.2280  -18.6170 C   0  0  0  0  0  0  0  0  0  0  0  0
  2  1  2  0
  3  2  1  0
  4  3  1  0
  5  4  2  0
  6  5  1  0
  7  6  2  0
  8  4  1  0
  9  8  2  0
  9  7  1  0
 10  9  1  0
 11  2  1  0
 12 11  1  0
 13 12  1  0
 14 13  2  0
 15 14  1  0
 16 15  2  0
 17 16  1  0
 18 17  2  0
 18 13  1  0
 19 18  1  0
 20 19  2  0
 21 20  1  0
 21 12  2  0
M  END
$$$$

     RDKit          3D

 25 28  0  0  0  0  0  0  0  0999 V2000
   -6.3790   -0.0600  -17.0430 O   0  0  0  0  0  0  0  0  0  0  0  0
   -5.8230   -0.2160  -18.1330 C   0  0  0  0  0  0  0  0  0  0  0  0
   -6.1460   -1.2630  -19.0490 C   0  0  0  0  0  0  0  0  0  0  0  0
   -4.8740    0.6760  -18.5550 N   0  0  0  0  0  0  0  0  0  0  0  0
   -4.2480    0.6310  -19.7910 C   0  0  0  0  0  0  0  0  0  0  0  0
   -3.2820    1.5770  -20.1260 C   0  0  0  0  0  0  0  0  0  0  0  0
   -2.6370    1.4940  -21.3480 C   0  0  0  0  0  0  0  0  0  0  0  0
   -2.9430    0.4840  -22.2340 C   0  0  0  0  0  0  0  0  0  0  0  0
   -3.9110   -0.4560  -21.9230 C   0  0  0  0  0  0  0  0  0  0  0  0
   -4.5760   -0.3970  -20.6990 C   0  0  0  0  0  0  0  0  0  0  0  0
   -5.5790   -1.3740  -20.2800 C   0  0  0  0  0  0  0  0  0  0  0  0
   -5.9570   -2.5490  -21.1440 C   0  0  0  0  0  0  0  0  0  0  0  0
   -5.1300   -3.4400  -21.3100 O   0  0  0  0  0  0  0  0  0  0  0  0
   -7.2000   -2.6280  -21.6700 N   0  0  0  0  0  0  0  0  0  0  0  0
   -7.5690   -3.7780  -22.5100 C   0  0  0  0  0  0  0  0  0  0  0  0
   -8.2460   -3.3110  -23.7870 C   0  0  0  0  0  0  0  0  0  0  0  0
   -9.3760   -2.4280  -23.4730 N   0  0  0  0  0  0  0  0  0  0  0  0
   -9.0360   -1.2760  -22.6300 C   0  0  0  0  0  0  0  0  0  0  0  0
   -8.3210   -1.7210  -21.3560 C   0  0  0  0  0  0  0  0  0  0  0  0
  -10.6900   -2.7780  -23.7900 C   0  0  0  0  0  0  0  0  0  0  0  0
  -10.9770   -3.4330  -24.9930 C   0  0  0  0  0  0  0  0  0  0  0  0
  -12.2840   -3.7960  -25.2910 C   0  0  0  0  0  0  0  0  0  0  0  0
  -13.3060   -3.5140  -24.4110 C   0  0  0  0  0  0  0  0  0  0  0  0
  -13.0310   -2.8670  -23.2220 C   0  0  0  0  0  0  0  0  0  0  0  0
  -11.7340   -2.4930  -22.9040 C   0  0  0  0  0  0  0  0  0  0  0  0
  2  1  2  0
  3  2  1  0
  4  2  1  0
  5  4  1  0
  6  5  2  0
  7  6  1  0
  8  7  2  0
  9  8  1  0
 10  9  2  0
 10  5  1  0
 11  3  2  0
 11 10  1  0
 12 11  1  0
 13 12  2  0
 14 12  1  0
 15 14  1  0
 16 15  1  0
 17 16  1  0
 18 17  1  0
 19 18  1  0
 19 14  1  0
 20 17  1  0
 21 20  2  0
 22 21  1  0
 23 22  2  0
 24 23  1  0
 25 24  2  0
 25 20  1  0
M  END
$$$$

     RDKit          3D

 24 26  0  0  0  0  0  0  0  0999 V2000
   -8.9270    0.1530  -21.4620 O   0  0  0  0  0  0  0  0  0  0  0  0
   -8.7840   -1.0050  -21.8460 C   0  0  0  0  0  0  0  0  0  0  0  0
   -7.7120   -1.9020  -21.2290 C   0  0  0  0  0  0  0  0  0  0  0  0
   -7.0100   -1.2240  -20.1590 N   0  0  0  0  0  0  0  0  0  0  0  0
   -5.9060   -0.4270  -20.2210 C   0  0  0  0  0  0  0  0  0  0  0  0
   -5.1090    0.0290  -21.2610 C   0  0  0  0  0  0  0  0  0  0  0  0
   -4.0590    0.8790  -20.9460 C   0  0  0  0  0  0  0  0  0  0  0  0
   -3.8150    1.2540  -19.6260 C   0  0  0  0  0  0  0  0  0  0  0  0
   -4.6150    0.7880  -18.5910 C   0  0  0  0  0  0  0  0  0  0  0  0
   -5.6780   -0.0550  -18.9000 C   0  0  0  0  0  0  0  0  0  0  0  0
   -6.6500   -0.6260  -18.1100 N   0  0  0  0  0  0  0  0  0  0  0  0
   -7.4430   -1.3230  -18.8770 N   0  0  0  0  0  0  0  0  0  0  0  0
   -9.5420   -1.5350  -22.8330 N   0  0  0  0  0  0  0  0  0  0  0  0
   -9.2140   -2.7930  -23.5150 C   0  0  0  0  0  0  0  0  0  0  0  0
   -8.6950   -2.6030  -24.9370 C   0  0  2  0  0  0  0  0  0  0  0  0
   -8.4650   -3.9660  -25.5810 C   0  0  0  0  0  0  0  0  0  0  0  0
   -7.4090   -1.7830  -24.9590 C   0  0  0  0  0  0  0  0  0  0  0  0
  -10.7430   -0.8280  -23.2910 C   0  0  0  0  0  0  0  0  0  0  0  0
  -11.9350   -1.7260  -23.5310 C   0  0  0  0  0  0  0  0  0  0  0  0
  -12.5390   -1.7830  -24.7770 C   0  0  0  0  0  0  0  0  0  0  0  0
  -13.6590   -2.5710  -24.9880 C   0  0  0  0  0  0  0  0  0  0  0  0
  -14.1830   -3.3160  -23.9580 C   0  0  0  0  0  0  0  0  0  0  0  0
  -13.5980   -3.2670  -22.7150 C   0  0  0  0  0  0  0  0  0  0  0  0
  -12.4810   -2.4770  -22.5000 C   0  0  0  0  0  0  0  0  0  0  0  0
  2  1  2  0
  3  2  1  0
  4  3  1  0
  5  4  1  0
  6  5  2  0
  7  6  1  0
  8  7  2  0
  9  8  1  0
 10  5  1  0
 10  9  2  0
 11 10  1  0
 12 11  2  0
 12  4  1  0
 13  2  1  0
 14 13  1  0
 15 14  1  0
 15 16  1  1
 17 15  1  0
 18 13  1  0
 19 18  1  0
 20 19  2  0
 21 20  1  0
 22 21  2  0
 23 22  1  0
 24 23  2  0
 24 19  1  0
M  END
$$$$

     RDKit          3D

 24 26  0  0  0  0  0  0  0  0999 V2000
  -13.9010   -2.4550  -21.9290 Cl  0  0  0  0  0  0  0  0  0  0  0  0
  -12.4750   -2.0390  -22.8410 C   0  0  0  0  0  0  0  0  0  0  0  0
  -12.5890   -1.1800  -23.9120 C   0  0  0  0  0  0  0  0  0  0  0  0
  -11.4350   -0.7720  -24.5590 C   0  0  0  0  0  0  0  0  0  0  0  0
  -10.1970   -1.2160  -24.1270 C   0  0  0  0  0  0  0  0  0  0  0  0
  -11.2480   -2.5100  -22.4140 C   0  0  0  0  0  0  0  0  0  0  0  0
  -10.0850   -2.0710  -23.0410 C   0  0  0  0  0  0  0  0  0  0  0  0
   -8.7310   -2.4470  -22.4840 C   0  0  0  0  0  0  0  0  0  0  0  0
   -8.1860   -1.4160  -21.5140 C   0  0  0  0  0  0  0  0  0  0  0  0
   -8.5580   -0.2430  -21.5340 O   0  0  0  0  0  0  0  0  0  0  0  0
   -7.2480   -1.8900  -20.6620 N   0  0  0  0  0  0  0  0  0  0  0  0
   -6.4890   -1.1780  -19.7120 C   0  0  0  0  0  0  0  0  0  0  0  0
   -6.7160   -1.2210  -18.3390 C   0  0  0  0  0  0  0  0  0  0  0  0
   -6.0730   -0.4770  -17.4290 N   0  0  0  0  0  0  0  0  0  0  0  0
   -5.1510    0.3660  -17.8700 C   0  0  0  0  0  0  0  0  0  0  0  0
   -4.7880    0.5120  -19.2320 C   0  0  0  0  0  0  0  0  0  0  0  0
   -5.4720   -0.2950  -20.1840 C   0  0  0  0  0  0  0  0  0  0  0  0
   -5.0780   -0.2010  -21.5400 C   0  0  0  0  0  0  0  0  0  0  0  0
   -4.0680    0.6260  -21.9290 C   0  0  0  0  0  0  0  0  0  0  0  0
   -3.7600    1.3770  -19.6720 C   0  0  0  0  0  0  0  0  0  0  0  0
   -3.3770    1.4270  -21.0130 C   0  0  0  0  0  0  0  0  0  0  0  0
   -2.3210    2.1870  -21.4110 N   0  0  0  0  0  0  0  0  0  0  0  0
   -1.0550    1.5500  -21.7370 C   0  0  0  0  0  0  0  0  0  0  0  0
   -2.5420    3.4360  -22.1140 C   0  0  0  0  0  0  0  0  0  0  0  0
  2  1  1  0
  3  2  2  0
  4  3  1  0
  5  4  2  0
  6  2  1  0
  7  6  2  0
  7  5  1  0
  8  7  1  0
  9  8  1  0
 10  9  2  0
 11  9  1  0
 12 11  1  0
 13 12  2  0
 14 13  1  0
 15 14  2  0
 16 15  1  0
 17 12  1  0
 17 16  2  0
 18 17  1  0
 19 18  2  0
 20 16  1  0
 21 19  1  0
 21 20  2  0
 22 21  1  0
 23 22  1  0
 24 22  1  0
M  END
$$$$

     RDKit          3D

 29 32  0  0  0  0  0  0  0  0999 V2000
  -13.7960   -2.6700  -21.6380 Cl  0  0  0  0  0  0  0  0  0  0  0  0
  -12.5270   -1.9610  -22.6050 C   0  0  0  0  0  0  0  0  0  0  0  0
  -11.2200   -2.3630  -22.3990 C   0  0  0  0  0  0  0  0  0  0  0  0
  -12.8460   -0.9860  -23.5270 C   0  0  0  0  0  0  0  0  0  0  0  0
  -11.8350   -0.4170  -24.2810 C   0  0  0  0  0  0  0  0  0  0  0  0
  -10.5030   -0.7900  -24.0940 C   0  0  0  0  0  0  0  0  0  0  0  0
   -9.4240   -0.1560  -24.9470 C   0  0  0  0  0  0  0  0  0  0  0  0
   -8.0840   -0.3190  -24.3630 N   0  0  2  0  0  0  0  0  0  0  0  0
   -7.0220    0.2520  -25.1860 C   0  0  0  0  0  0  0  0  0  0  0  0
   -6.5890    1.6510  -24.7770 C   0  0  0  0  0  0  0  0  0  0  0  0
   -5.8310    2.2920  -25.5020 O   0  0  0  0  0  0  0  0  0  0  0  0
   -7.0400    2.1230  -23.6160 N   0  0  0  0  0  0  0  0  0  0  0  0
   -6.5290    3.3440  -23.0170 C   0  0  0  0  0  0  0  0  0  0  0  0
  -10.1910   -1.7560  -23.1200 C   0  0  0  0  0  0  0  0  0  0  0  0
   -8.7370   -2.0450  -22.7850 C   0  0  1  0  0  0  0  0  0  0  0  0
   -7.8490   -1.7130  -23.9850 C   0  0  0  0  0  0  0  0  0  0  0  0
   -8.2850   -1.1230  -21.6510 C   0  0  0  0  0  0  0  0  0  0  0  0
   -8.5480    0.0830  -21.6430 O   0  0  0  0  0  0  0  0  0  0  0  0
   -7.5140   -1.7200  -20.7120 N   0  0  0  0  0  0  0  0  0  0  0  0
   -6.5600   -1.1910  -19.8040 C   0  0  0  0  0  0  0  0  0  0  0  0
   -5.5980   -0.2030  -20.2090 C   0  0  0  0  0  0  0  0  0  0  0  0
   -5.1690   -0.0290  -21.5510 C   0  0  0  0  0  0  0  0  0  0  0  0
   -4.1200    0.7940  -21.8550 C   0  0  0  0  0  0  0  0  0  0  0  0
   -3.4620    1.5020  -20.8600 C   0  0  0  0  0  0  0  0  0  0  0  0
   -3.8440    1.3840  -19.5550 C   0  0  0  0  0  0  0  0  0  0  0  0
   -4.9050    0.5160  -19.1900 C   0  0  0  0  0  0  0  0  0  0  0  0
   -5.2150    0.2170  -17.8420 C   0  0  0  0  0  0  0  0  0  0  0  0
   -6.0850   -0.7070  -17.4690 N   0  0  0  0  0  0  0  0  0  0  0  0
   -6.7190   -1.3860  -18.4320 C   0  0  0  0  0  0  0  0  0  0  0  0
  2  1  1  0
  3  2  2  0
  4  2  1  0
  5  4  2  0
  6  5  1  0
  7  6  1  0
  8  7  1  0
  8  9  1  6
 10  9  1  0
 11 10  2  0
 12 10  1  0
 13 12  1  0
 14  3  1  0
 14  6  2  0
 15 14  1  0
 16 15  1  0
 16  8  1  0
 15 17  1  1
 18 17  2  0
 19 17  1  0
 20 19  1  0
 21 20  1  0
 22 21  2  0
 23 22  1  0
 24 23  2  0
 25 24  1  0
 26 21  1  0
 26 25  2  0
 27 26  1  0
 28 27  2  0
 29 28  1  0
 29 20  2  0
M  CHG  1   8   1
M  END
$$$$

     RDKit          3D

 19 20  0  0  0  0  0  0  0  0999 V2000
   -6.1650   -0.4560  -17.7420 N   0  0  0  0  0  0  0  0  0  0  0  0
   -6.9620   -1.5370  -21.1860 N   0  0  0  0  0  0  0  0  0  0  0  0
   -5.2190   -0.0550  -20.3410 C   0  0  0  0  0  0  0  0  0  0  0  0
  -12.8240   -1.4100  -23.4370 C   0  0  0  0  0  0  0  0  0  0  0  0
  -10.0620   -1.7540  -23.1660 C   0  0  0  0  0  0  0  0  0  0  0  0
   -4.6140    0.5540  -19.2490 C   0  0  0  0  0  0  0  0  0  0  0  0
   -8.1160   -1.0930  -21.7240 C   0  0  0  0  0  0  0  0  0  0  0  0
   -6.3130   -0.8970  -20.1020 C   0  0  0  0  0  0  0  0  0  0  0  0
   -6.7730   -1.0860  -18.7770 C   0  0  0  0  0  0  0  0  0  0  0  0
  -11.9530   -0.8030  -24.3270 C   0  0  0  0  0  0  0  0  0  0  0  0
  -10.9420   -2.3850  -22.2920 C   0  0  0  0  0  0  0  0  0  0  0  0
  -10.5830   -0.9820  -24.1970 C   0  0  0  0  0  0  0  0  0  0  0  0
  -12.3010   -2.2210  -22.4520 C   0  0  0  0  0  0  0  0  0  0  0  0
   -4.7030    0.1940  -21.7360 C   0  0  0  0  0  0  0  0  0  0  0  0
   -7.8180   -1.8720  -18.5030 N   0  0  0  0  0  0  0  0  0  0  0  0
   -8.7400   -0.1300  -21.2890 O   0  0  0  0  0  0  0  0  0  0  0  0
   -8.5730   -1.8640  -22.9470 C   0  0  0  0  0  0  0  0  0  0  0  0
   -5.1090    0.3270  -17.9880 C   0  0  0  0  0  0  0  0  0  0  0  0
  -13.3800   -3.1510  -21.4510 Cl  0  0  0  0  0  0  0  0  0  0  0  0
  6  3  1  0
  7  2  1  0
  8  2  1  0
  8  3  2  0
  9  8  1  0
  9  1  2  0
 10  4  2  0
 11  5  1  0
 12 10  1  0
 12  5  2  0
 13 11  2  0
 13  4  1  0
 14  3  1  0
 15  9  1  0
 16  7  2  0
 17  5  1  0
 17  7  1  0
 18  1  1  0
 18  6  2  0
 19 13  1  0
M  END
$$$$

     RDKit          3D

 25 28  0  0  0  0  0  0  0  0999 V2000
  -13.9170   -2.8650  -21.6280 Cl  0  0  0  0  0  0  0  0  0  0  0  0
  -12.6970   -2.0550  -22.5680 C   0  0  0  0  0  0  0  0  0  0  0  0
  -11.3700   -2.3380  -22.3250 C   0  0  0  0  0  0  0  0  0  0  0  0
  -13.0800   -1.1160  -23.5010 C   0  0  0  0  0  0  0  0  0  0  0  0
  -12.1070   -0.4300  -24.2080 C   0  0  0  0  0  0  0  0  0  0  0  0
  -10.7580   -0.6960  -23.9800 C   0  0  0  0  0  0  0  0  0  0  0  0
   -9.7590   -0.0640  -24.7210 N   0  0  0  0  0  0  0  0  0  0  0  0
  -10.0530    1.1700  -25.4400 C   0  0  0  0  0  0  0  0  0  0  0  0
  -10.3800   -1.6490  -23.0240 C   0  0  0  0  0  0  0  0  0  0  0  0
   -8.9130   -1.9240  -22.7520 C   0  0  1  0  0  0  0  0  0  0  0  0
   -8.1520   -1.8630  -24.0960 C   0  0  0  0  0  0  0  0  0  0  0  0
   -8.3790   -0.5330  -24.8220 C   0  0  0  0  0  0  0  0  0  0  0  0
   -8.3240   -0.9910  -21.6890 C   0  0  0  0  0  0  0  0  0  0  0  0
   -8.6080    0.2040  -21.6410 O   0  0  0  0  0  0  0  0  0  0  0  0
   -7.5700   -1.6110  -20.7510 N   0  0  0  0  0  0  0  0  0  0  0  0
   -6.5530   -1.1190  -19.8950 C   0  0  0  0  0  0  0  0  0  0  0  0
   -5.6540   -0.0670  -20.2930 C   0  0  0  0  0  0  0  0  0  0  0  0
   -5.3520    0.2490  -21.6450 C   0  0  0  0  0  0  0  0  0  0  0  0
   -4.3960    1.1750  -21.9580 C   0  0  0  0  0  0  0  0  0  0  0  0
   -3.6950    1.8360  -20.9570 C   0  0  0  0  0  0  0  0  0  0  0  0
   -3.9470    1.5710  -19.6420 C   0  0  0  0  0  0  0  0  0  0  0  0
   -4.9210    0.6080  -19.2720 C   0  0  0  0  0  0  0  0  0  0  0  0
   -5.1370    0.2140  -17.9330 C   0  0  0  0  0  0  0  0  0  0  0  0
   -5.9470   -0.7630  -17.5670 N   0  0  0  0  0  0  0  0  0  0  0  0
   -6.6060   -1.4130  -18.5330 C   0  0  0  0  0  0  0  0  0  0  0  0
  2  1  1  0
  3  2  2  0
  4  2  1  0
  5  4  2  0
  6  5  1  0
  7  6  1  0
  8  7  1  0
  9  3  1  0
  9  6  2  0
 10  9  1  0
 11 10  1  0
 12 11  1  0
 12  7  1  0
 10 13  1  1
 14 13  2  0
 15 13  1  0
 16 15  1  0
 17 16  1  0
 18 17  2  0
 19 18  1  0
 20 19  2  0
 21 20  1  0
 22 17  1  0
 22 21  2  0
 23 22  1  0
 24 23  2  0
 25 24  1  0
 25 16  2  0
M  END
$$$$

     RDKit          3D

 36 40  0  0  0  0  0  0  0  0999 V2000
   -8.6760   -0.0830  -21.4350 O   0  0  0  0  0  0  0  0  0  0  0  0
   -8.1400   -1.1690  -21.6560 C   0  0  0  0  0  0  0  0  0  0  0  0
   -7.0470   -1.6190  -21.0030 N   0  0  0  0  0  0  0  0  0  0  0  0
   -6.3510   -0.9820  -19.9590 C   0  0  0  0  0  0  0  0  0  0  0  0
   -5.2650   -0.1110  -20.2890 C   0  0  0  0  0  0  0  0  0  0  0  0
   -4.7670    0.0650  -21.6070 C   0  0  0  0  0  0  0  0  0  0  0  0
   -3.7450    0.9360  -21.8590 C   0  0  0  0  0  0  0  0  0  0  0  0
   -3.1710    1.6710  -20.8300 C   0  0  0  0  0  0  0  0  0  0  0  0
   -3.6090    1.5300  -19.5460 C   0  0  0  0  0  0  0  0  0  0  0  0
   -4.6590    0.6310  -19.2380 C   0  0  0  0  0  0  0  0  0  0  0  0
   -5.1460    0.4300  -17.9240 C   0  0  0  0  0  0  0  0  0  0  0  0
   -6.1450   -0.3880  -17.6140 N   0  0  0  0  0  0  0  0  0  0  0  0
   -6.7210   -1.0670  -18.6160 C   0  0  0  0  0  0  0  0  0  0  0  0
   -8.7150   -2.1650  -22.6990 C   0  0  1  0  0  0  0  0  0  0  0  0
  -10.1480   -1.8060  -23.0680 C   0  0  0  0  0  0  0  0  0  0  0  0
  -10.4390   -0.8060  -23.9890 C   0  0  0  0  0  0  0  0  0  0  0  0
  -11.7550   -0.5000  -24.3120 C   0  0  0  0  0  0  0  0  0  0  0  0
  -12.7980   -1.1850  -23.7060 C   0  0  0  0  0  0  0  0  0  0  0  0
  -11.1940   -2.4970  -22.4700 C   0  0  0  0  0  0  0  0  0  0  0  0
  -12.4970   -2.1680  -22.7830 C   0  0  0  0  0  0  0  0  0  0  0  0
  -13.7910   -2.9630  -21.9340 Cl  0  0  0  0  0  0  0  0  0  0  0  0
   -7.8610   -2.3790  -23.8610 N   0  0  0  0  0  0  0  0  0  0  0  0
   -7.1670   -1.4290  -24.5030 C   0  0  0  0  0  0  0  0  0  0  0  0
   -7.2120   -0.2320  -24.2230 O   0  0  0  0  0  0  0  0  0  0  0  0
   -6.2950   -1.9150  -25.6520 C   0  0  1  0  0  0  0  0  0  0  0  0
   -6.1650   -3.3540  -25.6330 O   0  0  0  0  0  0  0  0  0  0  0  0
   -6.9320   -3.9990  -26.6850 C   0  0  2  0  0  0  0  0  0  0  0  0
   -7.7000   -2.8550  -27.3520 C   0  0  0  0  0  0  0  0  0  0  0  0
   -6.8860   -1.5950  -27.0090 C   0  0  0  0  0  0  0  0  0  0  0  0
   -7.8620   -5.0730  -26.0990 C   0  0  0  0  0  0  0  0  0  0  0  0
   -8.2250   -5.0070  -24.9380 O   0  0  0  0  0  0  0  0  0  0  0  0
   -8.2920   -6.0550  -26.9150 N   0  0  0  0  0  0  0  0  0  0  0  0
   -7.7280   -6.4540  -28.2130 C   0  0  0  0  0  0  0  0  0  0  0  0
   -8.8340   -7.2740  -28.8390 C   0  0  0  0  0  0  0  0  0  0  0  0
   -9.5290   -7.9020  -27.6630 C   0  0  0  0  0  0  0  0  0  0  0  0
   -9.4490   -6.8810  -26.5480 C   0  0  0  0  0  0  0  0  0  0  0  0
  2  1  2  0
  3  2  1  0
  4  3  1  0
  5  4  1  0
  6  5  2  0
  7  6  1  0
  8  7  2  0
  9  8  1  0
 10  9  2  0
 10  5  1  0
 11 10  1  0
 12 11  2  0
 13 12  1  0
 13  4  2  0
 14  2  1  0
 15 14  1  0
 16 15  2  0
 17 16  1  0
 18 17  2  0
 19 15  1  0
 20 19  2  0
 20 18  1  0
 21 20  1  0
 14 22  1  6
 23 22  1  0
 24 23  2  0
 25 23  1  1
 26 25  1  0
 27 26  1  0
 28 27  1  0
 29 28  1  0
 29 25  1  0
 27 30  1  1
 31 30  2  0
 32 30  1  0
 33 32  1  0
 34 33  1  0
 35 34  1  0
 36 35  1  0
 36 32  1  0
M  END
$$$$

     RDKit          3D

 18 19  0  0  0  0  0  0  0  0999 V2000
  -23.6060  -19.3100  -25.9220 C   0  0  0  0  0  0  0  0  0  0  0  0
  -23.0870  -20.3270  -24.8930 C   0  0  2  0  0  0  0  0  0  0  0  0
  -23.8640  -20.3700  -23.6330 C   0  0  0  0  0  0  0  0  0  0  0  0
  -23.4540  -21.5720  -22.7760 C   0  0  0  0  0  0  0  0  0  0  0  0
  -21.2040  -21.4820  -24.0100 C   0  0  0  0  0  0  0  0  0  0  0  0
  -21.6800  -20.1350  -24.5270 C   0  0  0  0  0  0  0  0  0  0  0  0
  -21.4160  -23.1460  -22.1100 C   0  0  0  0  0  0  0  0  0  0  0  0
  -21.5250  -24.8200  -20.2240 C   0  0  0  0  0  0  0  0  0  0  0  0
  -21.4680  -24.6310  -18.8570 C   0  0  0  0  0  0  0  0  0  0  0  0
  -20.8980  -25.6030  -18.0450 C   0  0  0  0  0  0  0  0  0  0  0  0
  -20.3890  -26.7660  -18.6120 C   0  0  0  0  0  0  0  0  0  0  0  0
  -20.4490  -26.9560  -19.9870 C   0  0  0  0  0  0  0  0  0  0  0  0
  -21.0180  -25.9830  -20.7950 C   0  0  0  0  0  0  0  0  0  0  0  0
  -22.8330  -18.1660  -26.3900 N   0  0  0  0  0  0  0  0  0  0  0  0
  -22.0320  -22.0950  -22.9200 N   0  0  0  0  0  0  0  0  0  0  0  0
  -22.1370  -23.7880  -21.0290 N   0  0  0  0  0  0  0  0  0  0  0  0
  -24.6770  -19.4860  -26.3860 O   0  0  0  0  0  0  0  0  0  0  0  0
  -20.2950  -23.4720  -22.3340 O   0  0  0  0  0  0  0  0  0  0  0  0
  2  1  1  6
  3  2  1  0
  4  3  1  0
  6  2  1  0
  6  5  1  0
  9  8  2  0
 10  9  1  0
 11 10  2  0
 12 11  1  0
 13 12  2  0
 13  8  1  0
 14  1  1  0
 15  4  1  0
 15  7  1  0
 15  5  1  0
 16  7  1  0
 16  8  1  0
 17  1  2  0
 18  7  2  0
M  END
$$$$

     RDKit          3D

 30 33  0  0  0  0  0  0  0  0999 V2000
   -9.1230   -0.0290  -21.2970 O   0  0  0  0  0  0  0  0  0  0  0  0
   -8.5410   -0.9710  -21.8230 C   0  0  0  0  0  0  0  0  0  0  0  0
   -9.1600   -1.6910  -23.0390 C   0  0  1  0  0  0  0  0  0  0  0  0
   -8.3580   -1.0330  -24.1940 C   0  0  0  0  0  0  0  0  0  0  0  0
   -9.2360   -0.3060  -25.2000 C   0  0  0  0  0  0  0  0  0  0  0  0
  -10.3320    0.4120  -24.6090 O   0  0  0  0  0  0  0  0  0  0  0  0
   -8.8570   -3.2040  -22.9580 C   0  0  0  0  0  0  0  0  0  0  0  0
   -9.5760   -4.0080  -23.9330 N   0  0  0  0  0  0  0  0  0  0  0  0
   -8.9600   -4.7710  -24.8390 C   0  0  0  0  0  0  0  0  0  0  0  0
   -9.8570   -5.6060  -25.6810 C   0  0  0  0  0  0  0  0  0  0  0  0
   -9.3980   -6.4190  -26.5930 C   0  0  0  0  0  0  0  0  0  0  0  0
   -7.7280   -4.7810  -24.9580 O   0  0  0  0  0  0  0  0  0  0  0  0
  -10.6700   -1.4540  -23.1160 C   0  0  0  0  0  0  0  0  0  0  0  0
  -11.1620   -0.4010  -23.8810 C   0  0  0  0  0  0  0  0  0  0  0  0
  -12.5170   -0.0980  -23.9190 C   0  0  0  0  0  0  0  0  0  0  0  0
  -13.3990   -0.8450  -23.1580 C   0  0  0  0  0  0  0  0  0  0  0  0
  -11.5740   -2.2160  -22.3760 C   0  0  0  0  0  0  0  0  0  0  0  0
  -12.9150   -1.8810  -22.3870 C   0  0  0  0  0  0  0  0  0  0  0  0
  -14.0010   -2.7200  -21.3100 Cl  0  0  0  0  0  0  0  0  0  0  0  0
   -7.3240   -1.3950  -21.3920 N   0  0  0  0  0  0  0  0  0  0  0  0
   -6.6020   -0.8840  -20.2840 C   0  0  0  0  0  0  0  0  0  0  0  0
   -5.5090    0.0130  -20.5170 C   0  0  0  0  0  0  0  0  0  0  0  0
   -5.0180    0.3450  -21.8060 C   0  0  0  0  0  0  0  0  0  0  0  0
   -3.9530    1.1890  -21.9580 C   0  0  0  0  0  0  0  0  0  0  0  0
   -3.3310    1.7560  -20.8490 C   0  0  0  0  0  0  0  0  0  0  0  0
   -3.7760    1.4790  -19.5880 C   0  0  0  0  0  0  0  0  0  0  0  0
   -4.8670    0.5970  -19.3840 C   0  0  0  0  0  0  0  0  0  0  0  0
   -5.3440    0.2380  -18.0990 C   0  0  0  0  0  0  0  0  0  0  0  0
   -6.3470   -0.6000  -17.8850 N   0  0  0  0  0  0  0  0  0  0  0  0
   -6.9460   -1.1390  -18.9570 C   0  0  0  0  0  0  0  0  0  0  0  0
  2  1  2  0
  3  2  1  0
  4  3  1  0
  5  4  1  0
  6  5  1  0
  3  7  1  1
  8  7  1  0
  9  8  1  0
 10  9  1  0
 11 10  2  0
 12  9  2  0
 13  3  1  0
 14 13  2  0
 14  6  1  0
 15 14  1  0
 16 15  2  0
 17 13  1  0
 18 17  2  0
 18 16  1  0
 19 18  1  0
 20  2  1  0
 21 20  1  0
 22 21  1  0
 23 22  2  0
 24 23  1  0
 25 24  2  0
 26 25  1  0
 27 22  1  0
 27 26  2  0
 28 27  1  0
 29 28  2  0
 30 29  1  0
 30 21  2  0
M  END
$$$$

     RDKit          3D

 34 38  0  0  0  0  0  0  0  0999 V2000
  -13.8320    6.5120  -23.1990 O   0  0  0  0  0  0  0  0  0  0  0  0
  -13.0540    5.8900  -23.9180 C   0  0  0  0  0  0  0  0  0  0  0  0
  -12.1730    6.7130  -24.7900 C   0  0  0  0  0  0  0  0  0  0  0  0
  -10.8290    6.4540  -24.8080 O   0  0  0  0  0  0  0  0  0  0  0  0
  -10.2620    7.4180  -25.6080 C   0  0  0  0  0  0  0  0  0  0  0  0
  -11.1920    8.2450  -26.0760 C   0  0  0  0  0  0  0  0  0  0  0  0
  -12.4410    7.7980  -25.5540 C   0  0  0  0  0  0  0  0  0  0  0  0
  -12.9970    4.5450  -23.9270 N   0  0  0  0  0  0  0  0  0  0  0  0
  -13.6890    3.7860  -22.8730 C   0  0  0  0  0  0  0  0  0  0  0  0
  -12.8600    2.5970  -22.4320 C   0  0  0  0  0  0  0  0  0  0  0  0
  -12.4200    3.7560  -25.0280 C   0  0  0  0  0  0  0  0  0  0  0  0
  -11.6650    2.5430  -24.4950 C   0  0  0  0  0  0  0  0  0  0  0  0
  -12.5220    1.7730  -23.5930 N   0  0  0  0  0  0  0  0  0  0  0  0
  -12.1790    0.4490  -23.3210 C   0  0  0  0  0  0  0  0  0  0  0  0
  -13.1690   -0.4920  -23.0090 C   0  0  0  0  0  0  0  0  0  0  0  0
  -12.7930   -1.7570  -22.5960 C   0  0  0  0  0  0  0  0  0  0  0  0
  -14.0260   -2.8800  -22.1010 Cl  0  0  0  0  0  0  0  0  0  0  0  0
  -10.8340    0.0630  -23.2530 C   0  0  0  0  0  0  0  0  0  0  0  0
  -10.4790   -1.2150  -22.8260 C   0  0  0  0  0  0  0  0  0  0  0  0
  -11.4700   -2.1320  -22.5020 C   0  0  0  0  0  0  0  0  0  0  0  0
   -9.0200   -1.5920  -22.6820 C   0  0  0  0  0  0  0  0  0  0  0  0
   -8.3450   -0.8450  -21.5470 C   0  0  0  0  0  0  0  0  0  0  0  0
   -8.6410    0.3140  -21.2680 O   0  0  0  0  0  0  0  0  0  0  0  0
   -7.5100   -1.5770  -20.7980 N   0  0  0  0  0  0  0  0  0  0  0  0
   -6.4770   -1.1700  -19.9390 C   0  0  0  0  0  0  0  0  0  0  0  0
   -5.4980   -0.2060  -20.3450 C   0  0  0  0  0  0  0  0  0  0  0  0
   -5.0850   -0.0180  -21.6900 C   0  0  0  0  0  0  0  0  0  0  0  0
   -4.0520    0.8250  -22.0010 C   0  0  0  0  0  0  0  0  0  0  0  0
   -3.3840    1.5240  -21.0050 C   0  0  0  0  0  0  0  0  0  0  0  0
   -3.7450    1.3840  -19.6960 C   0  0  0  0  0  0  0  0  0  0  0  0
   -4.8050    0.5150  -19.3280 C   0  0  0  0  0  0  0  0  0  0  0  0
   -5.1520    0.2570  -17.9850 C   0  0  0  0  0  0  0  0  0  0  0  0
   -6.0520   -0.6350  -17.6080 N   0  0  0  0  0  0  0  0  0  0  0  0
   -6.6590   -1.3400  -18.5680 C   0  0  0  0  0  0  0  0  0  0  0  0
  2  1  2  0
  3  2  1  0
  4  3  1  0
  5  4  1  0
  6  5  2  0
  7  6  1  0
  7  3  2  0
  8  2  1  0
  9  8  1  0
 10  9  1  0
 11  8  1  0
 12 11  1  0
 13 12  1  0
 13 10  1  0
 14 13  1  0
 15 14  2  0
 16 15  1  0
 17 16  1  0
 18 14  1  0
 19 18  2  0
 20 16  2  0
 20 19  1  0
 21 19  1  0
 22 21  1  0
 23 22  2  0
 24 22  1  0
 25 24  1  0
 26 25  1  0
 27 26  2  0
 28 27  1  0
 29 28  2  0
 30 29  1  0
 31 26  1  0
 31 30  2  0
 32 31  1  0
 33 32  2  0
 34 33  1  0
 34 25  2  0
M  END
$$$$

     RDKit          3D

 37 42  0  0  0  0  0  0  0  0999 V2000
   -9.1530    0.0480  -21.1670 O   0  0  0  0  0  0  0  0  0  0  0  0
   -8.6090   -0.9030  -21.7130 C   0  0  0  0  0  0  0  0  0  0  0  0
   -7.4260   -1.3990  -21.2840 N   0  0  0  0  0  0  0  0  0  0  0  0
   -6.7080   -0.9150  -20.1730 C   0  0  0  0  0  0  0  0  0  0  0  0
   -5.5620   -0.0880  -20.4010 C   0  0  0  0  0  0  0  0  0  0  0  0
   -5.0680    0.2380  -21.6890 C   0  0  0  0  0  0  0  0  0  0  0  0
   -3.9820    1.0560  -21.8380 C   0  0  0  0  0  0  0  0  0  0  0  0
   -3.3350    1.5820  -20.7300 C   0  0  0  0  0  0  0  0  0  0  0  0
   -3.7730    1.2980  -19.4690 C   0  0  0  0  0  0  0  0  0  0  0  0
   -4.8940    0.4560  -19.2680 C   0  0  0  0  0  0  0  0  0  0  0  0
   -5.4050    0.1400  -17.9840 C   0  0  0  0  0  0  0  0  0  0  0  0
   -6.4620   -0.6340  -17.7730 N   0  0  0  0  0  0  0  0  0  0  0  0
   -7.0890   -1.1330  -18.8470 C   0  0  0  0  0  0  0  0  0  0  0  0
   -9.2180   -1.5480  -22.9720 C   0  0  1  0  0  0  0  0  0  0  0  0
  -10.7270   -1.2650  -22.9590 C   0  0  0  0  0  0  0  0  0  0  0  0
  -11.5820   -2.0510  -22.1920 C   0  0  0  0  0  0  0  0  0  0  0  0
  -12.9320   -1.7600  -22.1610 C   0  0  0  0  0  0  0  0  0  0  0  0
  -13.9720   -2.7010  -21.1270 Cl  0  0  0  0  0  0  0  0  0  0  0  0
  -13.4700   -0.7170  -22.8860 C   0  0  0  0  0  0  0  0  0  0  0  0
  -12.6390    0.0570  -23.6760 C   0  0  0  0  0  0  0  0  0  0  0  0
  -11.2830   -0.2240  -23.7170 C   0  0  0  0  0  0  0  0  0  0  0  0
  -10.5540    0.5170  -24.6130 O   0  0  0  0  0  0  0  0  0  0  0  0
   -9.1310    0.5730  -24.3540 C   0  0  0  0  0  0  0  0  0  0  0  0
   -8.5360   -0.8020  -24.1430 C   0  0  0  0  0  0  0  0  0  0  0  0
   -8.9880   -3.0770  -23.0580 C   0  0  0  0  0  0  0  0  0  0  0  0
   -9.4890   -3.7150  -24.3380 C   0  0  0  0  0  0  0  0  0  0  0  0
  -10.2100   -3.1140  -25.1220 O   0  0  0  0  0  0  0  0  0  0  0  0
   -9.1340   -4.9870  -24.6170 N   0  0  0  0  0  0  0  0  0  0  0  0
   -9.9470   -5.8280  -25.5020 C   0  0  0  0  0  0  0  0  0  0  0  0
   -9.2920   -5.9230  -26.8630 C   0  0  0  0  0  0  0  0  0  0  0  0
   -7.8780   -6.2620  -26.6730 N   0  0  0  0  0  0  0  0  0  0  0  0
   -7.2040   -6.1380  -25.5080 C   0  0  0  0  0  0  0  0  0  0  0  0
   -7.8440   -5.5920  -24.2540 C   0  0  2  0  0  0  0  0  0  0  0  0
   -7.9910   -6.6990  -23.2210 C   0  0  0  0  0  0  0  0  0  0  0  0
   -5.9660   -6.5580  -25.6510 N   0  0  0  0  0  0  0  0  0  0  0  0
   -5.8280   -6.9750  -26.9760 N   0  0  0  0  0  0  0  0  0  0  0  0
   -6.9850   -6.7830  -27.5510 C   0  0  0  0  0  0  0  0  0  0  0  0
  2  1  2  0
  3  2  1  0
  4  3  1  0
  5  4  1  0
  6  5  2  0
  7  6  1  0
  8  7  2  0
  9  8  1  0
 10  5  1  0
 10  9  2  0
 11 10  1  0
 12 11  2  0
 13 12  1  0
 13  4  2  0
 14  2  1  0
 15 14  1  0
 16 15  2  0
 17 16  1  0
 18 17  1  0
 19 17  2  0
 20 19  1  0
 21 20  2  0
 21 15  1  0
 22 21  1  0
 23 22  1  0
 24 23  1  0
 24 14  1  0
 14 25  1  6
 26 25  1  0
 27 26  2  0
 28 26  1  0
 29 28  1  0
 30 29  1  0
 31 30  1  0
 32 31  1  0
 33 32  1  0
 33 28  1  0
 33 34  1  1
 35 32  2  0
 36 35  1  0
 37 36  2  0
 37 31  1  0
M  END
$$$$

     RDKit          3D

 18 20  0  0  0  0  0  0  0  0999 V2000
  -11.3620   -0.9740  -23.0460 Br  0  0  0  0  0  0  0  0  0  0  0  0
   -9.7490   -1.3530  -22.1140 C   0  0  0  0  0  0  0  0  0  0  0  0
   -9.5440   -2.6290  -21.6230 C   0  0  0  0  0  0  0  0  0  0  0  0
   -8.3450   -2.9130  -20.9850 C   0  0  0  0  0  0  0  0  0  0  0  0
   -7.8410   -4.1530  -20.3060 C   0  0  0  0  0  0  0  0  0  0  0  0
   -7.8790   -5.2720  -21.1760 O   0  0  0  0  0  0  0  0  0  0  0  0
   -8.8000   -0.3510  -21.9690 C   0  0  0  0  0  0  0  0  0  0  0  0
   -7.5950   -0.6410  -21.3480 C   0  0  0  0  0  0  0  0  0  0  0  0
   -7.3700   -1.9320  -20.8790 C   0  0  0  0  0  0  0  0  0  0  0  0
   -6.2110   -2.4770  -20.3160 N   0  0  0  0  0  0  0  0  0  0  0  0
   -6.3940   -3.7970  -19.9860 C   0  0  0  0  0  0  0  0  0  0  0  0
   -5.5390   -4.5470  -19.5590 O   0  0  0  0  0  0  0  0  0  0  0  0
   -4.9600   -1.7540  -20.1230 C   0  0  0  0  0  0  0  0  0  0  0  0
   -5.0740   -0.6620  -19.1120 C   0  0  0  0  0  0  0  0  0  0  0  0
   -4.1200    0.3180  -19.0420 N   0  0  0  0  0  0  0  0  0  0  0  0
   -4.5490    1.0310  -18.0620 C   0  0  0  0  0  0  0  0  0  0  0  0
   -5.6740    0.5970  -17.5190 O   0  0  0  0  0  0  0  0  0  0  0  0
   -6.0290   -0.5530  -18.2410 N   0  0  0  0  0  0  0  0  0  0  0  0
  2  1  1  0
  3  2  2  0
  4  3  1  0
  5  4  1  0
  6  5  1  0
  7  2  1  0
  8  7  2  0
  9  8  1  0
  9  4  2  0
 10  9  1  0
 11 10  1  0
 11  5  2  0
 12 11  1  0
 13 10  1  0
 14 13  1  0
 15 14  1  0
 16 15  2  0
 17 16  1  0
 18 17  1  0
 18 14  2  0
M  END
$$$$

     RDKit          3D

 33 37  0  0  0  0  0  0  0  0999 V2000
   -8.8730    5.7470  -22.5350 N   0  0  0  0  0  0  0  0  0  0  0  0
   -8.0580    4.9790  -22.7470 C   0  0  0  0  0  0  0  0  0  0  0  0
   -7.0350    3.9610  -23.0490 C   0  0  2  0  0  0  0  0  0  0  0  0
   -6.9360    3.6130  -24.5560 C   0  0  0  0  0  0  0  0  0  0  0  0
   -7.4250    2.4800  -22.8110 C   0  0  0  0  0  0  0  0  0  0  0  0
   -7.5500    2.2840  -24.2810 N   0  0  0  0  0  0  0  0  0  0  0  0
   -7.5050    0.9560  -25.1800 S   0  0  1  0  0  0  0  0  0  0  0  0
   -7.9020    1.3500  -26.4880 O   0  0  0  0  0  0  0  0  0  0  0  0
   -6.2580    0.3020  -24.9690 O   0  0  0  0  0  0  0  0  0  0  0  0
   -8.6560    0.0080  -24.6060 N   0  0  0  0  0  0  0  0  0  0  0  0
  -10.0520    0.1590  -25.0280 C   0  0  0  0  0  0  0  0  0  0  0  0
   -8.2790   -1.3860  -24.3030 C   0  0  0  0  0  0  0  0  0  0  0  0
   -9.0350   -1.8330  -23.0530 C   0  0  2  0  0  0  0  0  0  0  0  0
  -10.5250   -1.5680  -23.2000 C   0  0  0  0  0  0  0  0  0  0  0  0
  -10.9790   -0.5790  -24.0890 C   0  0  0  0  0  0  0  0  0  0  0  0
  -12.3380   -0.2700  -24.1230 C   0  0  0  0  0  0  0  0  0  0  0  0
  -13.2430   -0.9320  -23.3160 C   0  0  0  0  0  0  0  0  0  0  0  0
  -11.4480   -2.2550  -22.4090 C   0  0  0  0  0  0  0  0  0  0  0  0
  -12.7900   -1.9210  -22.4780 C   0  0  0  0  0  0  0  0  0  0  0  0
  -13.9270   -2.7570  -21.4600 Cl  0  0  0  0  0  0  0  0  0  0  0  0
   -8.5120   -1.0710  -21.8300 C   0  0  0  0  0  0  0  0  0  0  0  0
   -9.1300   -0.1310  -21.3390 O   0  0  0  0  0  0  0  0  0  0  0  0
   -7.3180   -1.5100  -21.3490 N   0  0  0  0  0  0  0  0  0  0  0  0
   -6.5860   -1.0080  -20.2420 C   0  0  0  0  0  0  0  0  0  0  0  0
   -5.4460   -0.1700  -20.4740 C   0  0  0  0  0  0  0  0  0  0  0  0
   -4.9060    0.0960  -21.7590 C   0  0  0  0  0  0  0  0  0  0  0  0
   -3.8160    0.9080  -21.9110 C   0  0  0  0  0  0  0  0  0  0  0  0
   -3.2130    1.4990  -20.8080 C   0  0  0  0  0  0  0  0  0  0  0  0
   -3.6930    1.2730  -19.5490 C   0  0  0  0  0  0  0  0  0  0  0  0
   -4.8130    0.4300  -19.3440 C   0  0  0  0  0  0  0  0  0  0  0  0
   -5.3360    0.1340  -18.0580 C   0  0  0  0  0  0  0  0  0  0  0  0
   -6.3790   -0.6560  -17.8430 N   0  0  0  0  0  0  0  0  0  0  0  0
   -6.9740   -1.2030  -18.9140 C   0  0  0  0  0  0  0  0  0  0  0  0
  2  1  3  0
  3  2  1  6
  4  3  1  0
  5  3  1  0
  6  5  1  0
  6  4  1  0
  7  6  1  1
  8  7  2  0
  9  7  2  0
 10  7  1  0
 11 10  1  0
 12 10  1  0
 13 12  1  0
 14 13  1  0
 15 14  2  0
 15 11  1  0
 16 15  1  0
 17 16  2  0
 18 14  1  0
 19 18  2  0
 19 17  1  0
 20 19  1  0
 13 21  1  1
 22 21  2  0
 23 21  1  0
 24 23  1  0
 25 24  1  0
 26 25  2  0
 27 26  1  0
 28 27  2  0
 29 28  1  0
 30 29  2  0
 30 25  1  0
 31 30  1  0
 32 31  2  0
 33 32  1  0
 33 24  2  0
M  END
$$$$

     RDKit          3D

 23 25  0  0  0  0  0  0  0  0999 V2000
   -8.9430    0.0450  -21.4110 O   0  0  0  0  0  0  0  0  0  0  0  0
   -8.6760   -1.0590  -21.8690 C   0  0  0  0  0  0  0  0  0  0  0  0
   -7.7070   -1.9930  -21.1390 C   0  0  0  0  0  0  0  0  0  0  0  0
   -7.0070   -1.3140  -20.0680 N   0  0  0  0  0  0  0  0  0  0  0  0
   -5.8980   -0.5220  -20.1230 C   0  0  0  0  0  0  0  0  0  0  0  0
   -5.0920   -0.0740  -21.1590 C   0  0  0  0  0  0  0  0  0  0  0  0
   -4.0490    0.7860  -20.8390 C   0  0  0  0  0  0  0  0  0  0  0  0
   -3.8200    1.1730  -19.5210 C   0  0  0  0  0  0  0  0  0  0  0  0
   -4.6180    0.6990  -18.4880 C   0  0  0  0  0  0  0  0  0  0  0  0
   -5.6730   -0.1550  -18.8000 C   0  0  0  0  0  0  0  0  0  0  0  0
   -6.6390   -0.7410  -18.0110 N   0  0  0  0  0  0  0  0  0  0  0  0
   -7.4340   -1.4270  -18.7840 N   0  0  0  0  0  0  0  0  0  0  0  0
   -9.1880   -1.4770  -23.0640 N   0  0  0  0  0  0  0  0  0  0  0  0
   -8.6700   -2.6620  -23.7840 C   0  0  1  0  0  0  0  0  0  0  0  0
   -9.7950   -3.5640  -24.2830 C   0  0  0  0  0  0  0  0  0  0  0  0
   -7.7110   -2.2540  -24.8930 C   0  0  0  0  0  0  0  0  0  0  0  0
  -10.1460   -0.6360  -23.7930 C   0  0  0  0  0  0  0  0  0  0  0  0
  -11.5820   -0.7070  -23.3160 C   0  0  0  0  0  0  0  0  0  0  0  0
  -12.0150   -1.7260  -22.4740 C   0  0  0  0  0  0  0  0  0  0  0  0
  -13.3260   -1.7660  -22.0270 C   0  0  0  0  0  0  0  0  0  0  0  0
  -14.2210   -0.7940  -22.4150 C   0  0  0  0  0  0  0  0  0  0  0  0
  -13.8130    0.2080  -23.2660 C   0  0  0  0  0  0  0  0  0  0  0  0
  -12.5030    0.2510  -23.7150 C   0  0  0  0  0  0  0  0  0  0  0  0
  2  1  2  0
  3  2  1  0
  4  3  1  0
  5  4  1  0
  6  5  2  0
  7  6  1  0
  8  7  2  0
  9  8  1  0
 10  5  1  0
 10  9  2  0
 11 10  1  0
 12 11  2  0
 12  4  1  0
 13  2  1  0
 14 13  1  0
 14 15  1  6
 16 14  1  0
 17 13  1  0
 18 17  1  0
 19 18  2  0
 20 19  1  0
 21 20  2  0
 22 21  1  0
 23 22  2  0
 23 18  1  0
M  END
$$$$

     RDKit          3D

 18 19  0  0  0  0  0  0  0  0999 V2000
  -10.0770   -5.6190  -26.1110 C   0  0  0  0  0  0  0  0  0  0  0  0
   -8.9970   -5.6170  -25.0930 C   0  0  0  0  0  0  0  0  0  0  0  0
   -8.2900   -6.7720  -24.8330 C   0  0  0  0  0  0  0  0  0  0  0  0
   -7.2900   -6.8030  -23.8870 C   0  0  0  0  0  0  0  0  0  0  0  0
   -6.9800   -5.6470  -23.1770 C   0  0  0  0  0  0  0  0  0  0  0  0
   -6.1980   -5.3650  -20.9040 C   0  0  0  0  0  0  0  0  0  0  0  0
   -7.5110   -4.6680  -20.6290 C   0  0  0  0  0  0  0  0  0  0  0  0
   -4.5930   -6.0430  -22.6480 C   0  0  2  0  0  0  0  0  0  0  0  0
   -4.3720   -5.5530  -24.0740 C   0  0  0  0  0  0  0  0  0  0  0  0
   -3.7080   -6.3890  -24.8620 C   0  0  0  0  0  0  0  0  0  0  0  0
   -4.3920   -7.5640  -22.6540 C   0  0  0  0  0  0  0  0  0  0  0  0
   -7.6780   -4.4670  -23.4340 C   0  0  0  0  0  0  0  0  0  0  0  0
   -8.6860   -4.4710  -24.3770 C   0  0  0  0  0  0  0  0  0  0  0  0
   -5.9320   -5.6740  -22.2040 N   0  0  0  0  0  0  0  0  0  0  0  0
   -5.4080   -5.6230  -20.0070 O   0  0  0  0  0  0  0  0  0  0  0  0
   -1.9570   -7.9170  -23.6360 O   0  0  0  0  0  0  0  0  0  0  0  0
   -3.8200   -9.0000  -24.8230 O   0  0  0  0  0  0  0  0  0  0  0  0
   -3.3350   -7.8890  -24.0500 S   0  0  2  0  0  0  0  0  0  0  0  0
  2  1  1  0
  3  2  2  0
  4  3  1  0
  5  4  2  0
  7  6  1  0
  9  8  1  0
 10  9  1  0
 11  8  1  0
 12  5  1  0
 13  2  1  0
 13 12  2  0
 14  5  1  0
 14  6  1  0
  8 14  1  6
 15  6  2  0
 18 17  2  0
 18 16  2  0
 18 11  1  1
 18 10  1  0
M  END
$$$$

     RDKit          3D

 23 24  0  0  0  0  0  0  0  0999 V2000
  -11.2730    4.3590  -24.4090 O   0  0  0  0  0  0  0  0  0  0  0  0
  -10.6150    3.0950  -24.4110 S   0  0  1  0  0  0  0  0  0  0  0  0
   -9.8090    2.7340  -25.5300 O   0  0  0  0  0  0  0  0  0  0  0  0
   -9.6570    3.0790  -23.1100 N   0  0  0  0  0  0  0  0  0  0  0  0
  -11.6860    1.8700  -24.2010 N   0  0  0  0  0  0  0  0  0  0  0  0
  -11.4770    0.4820  -23.8590 C   0  0  0  0  0  0  0  0  0  0  0  0
  -12.5790   -0.2940  -23.4970 C   0  0  0  0  0  0  0  0  0  0  0  0
  -12.3620   -1.5720  -23.0110 C   0  0  0  0  0  0  0  0  0  0  0  0
  -13.7230   -2.5130  -22.4650 Cl  0  0  0  0  0  0  0  0  0  0  0  0
  -11.0980   -2.1060  -22.8960 C   0  0  0  0  0  0  0  0  0  0  0  0
  -10.1960   -0.0640  -23.7750 C   0  0  0  0  0  0  0  0  0  0  0  0
   -9.9970   -1.3470  -23.2690 C   0  0  0  0  0  0  0  0  0  0  0  0
   -8.6000   -1.8540  -22.9820 C   0  0  0  0  0  0  0  0  0  0  0  0
   -8.0480   -1.1870  -21.7380 C   0  0  0  0  0  0  0  0  0  0  0  0
   -8.6400   -0.2660  -21.1980 O   0  0  0  0  0  0  0  0  0  0  0  0
   -6.8580   -1.6520  -21.2990 N   0  0  0  0  0  0  0  0  0  0  0  0
   -6.2120   -1.0660  -20.1800 C   0  0  0  0  0  0  0  0  0  0  0  0
   -5.0910   -0.2350  -20.3700 C   0  0  0  0  0  0  0  0  0  0  0  0
   -4.4720   -0.0240  -21.7290 C   0  0  0  0  0  0  0  0  0  0  0  0
   -6.7160   -1.2120  -18.8850 C   0  0  0  0  0  0  0  0  0  0  0  0
   -6.2190   -0.5770  -17.8200 N   0  0  0  0  0  0  0  0  0  0  0  0
   -5.1560    0.2110  -18.0150 C   0  0  0  0  0  0  0  0  0  0  0  0
   -4.5680    0.4020  -19.2490 C   0  0  0  0  0  0  0  0  0  0  0  0
  2  1  2  0
  3  2  2  0
  2  4  1  1
  5  2  1  0
  6  5  1  0
  7  6  2  0
  8  7  1  0
  9  8  1  0
 10  8  2  0
 11  6  1  0
 12 10  1  0
 12 11  2  0
 13 12  1  0
 14 13  1  0
 15 14  2  0
 16 14  1  0
 17 16  1  0
 18 17  2  0
 19 18  1  0
 20 17  1  0
 21 20  2  0
 22 21  1  0
 23 22  2  0
 23 18  1  0
M  END
$$$$

     RDKit          3D

 25 28  0  0  0  0  0  0  0  0999 V2000
  -10.4620    0.0730  -24.9180 O   0  0  0  0  0  0  0  0  0  0  0  0
   -5.0860    0.1650  -21.6680 C   0  0  0  0  0  0  0  0  0  0  0  0
   -9.1460   -1.7380  -23.0000 C   0  0  1  0  0  0  0  0  0  0  0  0
   -4.0240    1.0130  -21.8170 C   0  0  0  0  0  0  0  0  0  0  0  0
   -3.4150    1.5810  -20.7100 C   0  0  0  0  0  0  0  0  0  0  0  0
   -3.8610    1.2990  -19.4520 C   0  0  0  0  0  0  0  0  0  0  0  0
  -13.9170   -2.8520  -21.2130 Cl  0  0  0  0  0  0  0  0  0  0  0  0
   -4.9510    0.4220  -19.2510 C   0  0  0  0  0  0  0  0  0  0  0  0
   -5.4710    0.1080  -17.9710 C   0  0  0  0  0  0  0  0  0  0  0  0
   -7.1250   -1.1940  -18.8380 C   0  0  0  0  0  0  0  0  0  0  0  0
   -9.2060   -0.0120  -21.3140 O   0  0  0  0  0  0  0  0  0  0  0  0
   -6.7310   -0.9820  -20.1580 C   0  0  0  0  0  0  0  0  0  0  0  0
   -8.6020   -0.9770  -21.7680 C   0  0  0  0  0  0  0  0  0  0  0  0
   -8.7750   -3.1620  -22.9230 N   0  0  0  0  0  0  0  0  0  0  0  0
   -7.4370   -1.4610  -21.2770 N   0  0  0  0  0  0  0  0  0  0  0  0
   -5.5890   -0.1530  -20.3820 C   0  0  0  0  0  0  0  0  0  0  0  0
  -10.6550   -1.5390  -23.1050 C   0  0  0  0  0  0  0  0  0  0  0  0
  -11.5120   -2.2620  -22.2800 C   0  0  0  0  0  0  0  0  0  0  0  0
  -12.8630   -1.9730  -22.2870 C   0  0  0  0  0  0  0  0  0  0  0  0
  -13.3970   -0.9980  -23.1060 C   0  0  0  0  0  0  0  0  0  0  0  0
  -12.5640   -0.3100  -23.9680 C   0  0  0  0  0  0  0  0  0  0  0  0
  -11.2070   -0.5900  -23.9700 C   0  0  0  0  0  0  0  0  0  0  0  0
   -9.0490    0.1950  -24.6240 C   0  0  0  0  0  0  0  0  0  0  0  0
   -6.5190   -0.6770  -17.7610 N   0  0  0  0  0  0  0  0  0  0  0  0
   -8.4300   -1.1300  -24.2280 C   0  0  0  0  0  0  0  0  0  0  0  0
  4  2  2  0
  5  4  1  0
  6  5  2  0
  8  6  1  0
  9  8  2  0
 12 10  1  0
 13  3  1  0
 13 11  2  0
  3 14  1  1
 15 13  1  0
 15 12  1  0
 16 12  2  0
 16  8  1  0
 16  2  1  0
 17  3  1  0
 18 17  2  0
 19 18  1  0
 19  7  1  0
 20 19  2  0
 21 20  1  0
 22 21  2  0
 22 17  1  0
 22  1  1  0
 23  1  1  0
 24 10  2  0
 24  9  1  0
 25 23  1  0
 25  3  1  0
M  CHG  1  14   1
M  END
$$$$

     RDKit          3D

 34 37  0  0  0  0  0  0  0  0999 V2000
  -10.5470    2.0040  -24.6140 O   0  0  0  0  0  0  0  0  0  0  0  0
  -10.1400    0.8770  -24.3930 C   0  0  0  0  0  0  0  0  0  0  0  0
   -8.8240    0.5330  -24.5630 N   0  0  0  0  0  0  0  0  0  0  0  0
   -7.9150    1.4550  -25.2210 C   0  0  0  0  0  0  0  0  0  0  0  0
   -7.3970    2.6450  -24.4310 C   0  0  0  0  0  0  0  0  0  0  0  0
   -6.8040    3.5580  -24.9990 O   0  0  0  0  0  0  0  0  0  0  0  0
   -7.5970    2.6390  -23.1180 N   0  0  0  0  0  0  0  0  0  0  0  0
   -6.9630    3.6020  -22.2350 C   0  0  0  0  0  0  0  0  0  0  0  0
  -11.0020   -0.1320  -23.7670 C   0  0  0  0  0  0  0  0  0  0  0  0
  -12.3690    0.1260  -23.6520 C   0  0  0  0  0  0  0  0  0  0  0  0
  -13.1920   -0.7490  -22.9700 C   0  0  0  0  0  0  0  0  0  0  0  0
  -12.6470   -1.8850  -22.4170 C   0  0  0  0  0  0  0  0  0  0  0  0
  -13.6900   -3.0010  -21.5860 Cl  0  0  0  0  0  0  0  0  0  0  0  0
  -11.2940   -2.1610  -22.5000 C   0  0  0  0  0  0  0  0  0  0  0  0
  -10.4480   -1.2650  -23.1580 C   0  0  0  0  0  0  0  0  0  0  0  0
   -8.9460   -1.4510  -23.1010 C   0  0  1  0  0  0  0  0  0  0  0  0
   -8.3050   -0.8180  -24.3370 C   0  0  0  0  0  0  0  0  0  0  0  0
   -8.4120   -0.7330  -21.8570 C   0  0  0  0  0  0  0  0  0  0  0  0
   -8.8530    0.3580  -21.4900 O   0  0  0  0  0  0  0  0  0  0  0  0
   -7.3890   -1.3650  -21.2260 N   0  0  0  0  0  0  0  0  0  0  0  0
   -6.6470   -0.9200  -20.1010 C   0  0  0  0  0  0  0  0  0  0  0  0
   -5.5280   -0.0600  -20.3290 C   0  0  0  0  0  0  0  0  0  0  0  0
   -4.8570    0.4880  -19.1950 C   0  0  0  0  0  0  0  0  0  0  0  0
   -5.3190    0.1080  -17.9100 C   0  0  0  0  0  0  0  0  0  0  0  0
   -6.3360   -0.7180  -17.6980 N   0  0  0  0  0  0  0  0  0  0  0  0
   -6.9740   -1.2050  -18.7740 C   0  0  0  0  0  0  0  0  0  0  0  0
   -5.0400    0.2660  -21.6180 C   0  0  0  0  0  0  0  0  0  0  0  0
   -3.9650    1.0880  -21.7840 C   0  0  0  0  0  0  0  0  0  0  0  0
   -3.3380    1.6390  -20.6750 C   0  0  0  0  0  0  0  0  0  0  0  0
   -3.7570    1.3550  -19.4010 C   0  0  0  0  0  0  0  0  0  0  0  0
   -2.0500    2.8270  -20.9100 S   0  0  1  0  0  0  0  0  0  0  0  0
   -2.6480    4.0500  -21.3650 O   0  0  0  0  0  0  0  0  0  0  0  0
   -1.2570    2.8730  -19.7140 O   0  0  0  0  0  0  0  0  0  0  0  0
   -1.0730    2.1730  -22.2060 C   0  0  0  0  0  0  0  0  0  0  0  0
  2  1  2  0
  3  2  1  0
  4  3  1  0
  5  4  1  0
  6  5  2  0
  7  5  1  0
  8  7  1  0
  9  2  1  0
 10  9  2  0
 11 10  1  0
 12 11  2  0
 13 12  1  0
 14 12  1  0
 15 14  2  0
 15  9  1  0
 16 15  1  0
 17 16  1  0
 17  3  1  0
 16 18  1  1
 19 18  2  0
 20 18  1  0
 21 20  1  0
 22 21  2  0
 23 22  1  0
 24 23  2  0
 25 24  1  0
 26 25  2  0
 26 21  1  0
 27 22  1  0
 28 27  2  0
 29 28  1  0
 30 29  2  0
 30 23  1  0
 31 29  1  0
 32 31  2  0
 33 31  2  0
 31 34  1  6
M  END
$$$$

     RDKit          3D

 21 23  0  0  0  0  0  0  0  0999 V2000
   -6.2190   -0.3820  -17.6860 N   0  0  0  0  0  0  0  0  0  0  0  0
   -9.4800   -1.8350  -23.5860 N   0  0  0  0  0  0  0  0  0  0  0  0
   -5.1850   -0.2210  -20.2940 C   0  0  0  0  0  0  0  0  0  0  0  0
  -12.7940   -0.7090  -24.2420 C   0  0  0  0  0  0  0  0  0  0  0  0
   -9.2240   -1.0930  -24.7150 C   0  0  0  0  0  0  0  0  0  0  0  0
   -4.6290    0.5030  -19.2440 C   0  0  0  0  0  0  0  0  0  0  0  0
   -8.0620   -1.4870  -21.6240 C   0  0  0  0  0  0  0  0  0  0  0  0
   -6.2840   -1.0500  -19.9970 C   0  0  0  0  0  0  0  0  0  0  0  0
   -6.7570   -1.0910  -18.6840 C   0  0  0  0  0  0  0  0  0  0  0  0
  -11.4270   -0.9840  -24.3310 C   0  0  0  0  0  0  0  0  0  0  0  0
  -12.9370   -2.0690  -22.3030 C   0  0  0  0  0  0  0  0  0  0  0  0
  -13.7030   -2.6640  -21.3510 F   0  0  0  0  0  0  0  0  0  0  0  0
  -10.3680   -0.5610  -25.1990 C   0  0  0  0  0  0  0  0  0  0  0  0
  -13.5520   -1.2370  -23.2120 C   0  0  0  0  0  0  0  0  0  0  0  0
  -11.5930   -2.3690  -22.3250 C   0  0  0  0  0  0  0  0  0  0  0  0
   -4.6540   -0.0720  -21.6970 C   0  0  0  0  0  0  0  0  0  0  0  0
   -6.8950   -1.8000  -21.0250 N   0  0  0  0  0  0  0  0  0  0  0  0
   -8.7370   -0.4960  -21.3440 O   0  0  0  0  0  0  0  0  0  0  0  0
   -8.4700   -2.4460  -22.7290 C   0  0  0  0  0  0  0  0  0  0  0  0
   -5.1720    0.3970  -17.9790 C   0  0  0  0  0  0  0  0  0  0  0  0
  -10.8410   -1.7960  -23.3440 C   0  0  0  0  0  0  0  0  0  0  0  0
  5  2  1  0
  6  3  1  0
  8  3  2  0
  9  8  1  0
  9  1  2  0
 10  4  2  0
 12 11  1  0
 13 10  1  0
 13  5  2  0
 14 11  2  0
 14  4  1  0
 15 11  1  0
 16  3  1  0
 17  8  1  0
 17  7  1  0
 18  7  2  0
 19  2  1  0
 19  7  1  0
 20  1  1  0
 20  6  2  0
 21 15  2  0
 21 10  1  0
 21  2  1  0
M  END
$$$$

     RDKit          3D

 30 33  0  0  0  0  0  0  0  0999 V2000
  -10.4200    1.7810  -24.7650 O   0  0  0  0  0  0  0  0  0  0  0  0
  -10.0550    0.6650  -24.4450 C   0  0  0  0  0  0  0  0  0  0  0  0
   -8.7480    0.2670  -24.5700 N   0  0  0  0  0  0  0  0  0  0  0  0
   -7.8160    1.0860  -25.3220 C   0  0  0  0  0  0  0  0  0  0  0  0
   -7.2590    2.3150  -24.6200 C   0  0  0  0  0  0  0  0  0  0  0  0
   -6.5600    3.1140  -25.2370 O   0  0  0  0  0  0  0  0  0  0  0  0
   -7.5320    2.4620  -23.3270 N   0  0  0  0  0  0  0  0  0  0  0  0
   -6.8760    3.4630  -22.5060 C   0  0  0  0  0  0  0  0  0  0  0  0
  -10.9640   -0.2730  -23.7600 C   0  0  0  0  0  0  0  0  0  0  0  0
  -12.3250    0.0280  -23.6780 C   0  0  0  0  0  0  0  0  0  0  0  0
  -13.1850   -0.8030  -22.9840 C   0  0  0  0  0  0  0  0  0  0  0  0
  -12.6830   -1.9380  -22.3860 C   0  0  0  0  0  0  0  0  0  0  0  0
  -13.7680   -3.0080  -21.5460 Cl  0  0  0  0  0  0  0  0  0  0  0  0
  -11.3360   -2.2540  -22.4390 C   0  0  0  0  0  0  0  0  0  0  0  0
  -10.4560   -1.4040  -23.1080 C   0  0  0  0  0  0  0  0  0  0  0  0
   -8.9640   -1.6530  -23.0510 C   0  0  1  0  0  0  0  0  0  0  0  0
   -8.3020   -1.1060  -24.3150 C   0  0  0  0  0  0  0  0  0  0  0  0
   -8.4260   -0.8900  -21.8380 C   0  0  0  0  0  0  0  0  0  0  0  0
   -8.8850    0.1970  -21.4880 O   0  0  0  0  0  0  0  0  0  0  0  0
   -7.3750   -1.4740  -21.2220 N   0  0  0  0  0  0  0  0  0  0  0  0
   -6.6290   -0.9690  -20.1360 C   0  0  0  0  0  0  0  0  0  0  0  0
   -5.5220   -0.1040  -20.4060 C   0  0  0  0  0  0  0  0  0  0  0  0
   -5.0360    0.1730  -21.7120 C   0  0  0  0  0  0  0  0  0  0  0  0
   -3.9740    1.0160  -21.9030 C   0  0  0  0  0  0  0  0  0  0  0  0
   -3.3570    1.6320  -20.8210 C   0  0  0  0  0  0  0  0  0  0  0  0
   -3.7870    1.3970  -19.5460 C   0  0  0  0  0  0  0  0  0  0  0  0
   -4.8730    0.5190  -19.3010 C   0  0  0  0  0  0  0  0  0  0  0  0
   -5.3490    0.2140  -18.0010 C   0  0  0  0  0  0  0  0  0  0  0  0
   -6.3610   -0.6060  -17.7500 N   0  0  0  0  0  0  0  0  0  0  0  0
   -6.9730   -1.1740  -18.7980 C   0  0  0  0  0  0  0  0  0  0  0  0
  2  1  2  0
  3  2  1  0
  4  3  1  0
  5  4  1  0
  6  5  2  0
  7  5  1  0
  8  7  1  0
  9  2  1  0
 10  9  2  0
 11 10  1  0
 12 11  2  0
 13 12  1  0
 14 12  1  0
 15 14  2  0
 15  9  1  0
 16 15  1  0
 17 16  1  0
 17  3  1  0
 16 18  1  1
 19 18  2  0
 20 18  1  0
 21 20  1  0
 22 21  1  0
 23 22  2  0
 24 23  1  0
 25 24  2  0
 26 25  1  0
 27 22  1  0
 27 26  2  0
 28 27  1  0
 29 28  2  0
 30 29  1  0
 30 21  2  0
M  END
$$$$

     RDKit          3D

 30 33  0  0  0  0  0  0  0  0999 V2000
   -9.1430    0.0590  -21.3660 O   0  0  0  0  0  0  0  0  0  0  0  0
   -8.6190   -0.9270  -21.8740 C   0  0  0  0  0  0  0  0  0  0  0  0
   -9.2390   -1.5990  -23.1170 C   0  0  1  0  0  0  0  0  0  0  0  0
  -10.7470   -1.3560  -23.1710 C   0  0  0  0  0  0  0  0  0  0  0  0
  -11.6040   -2.1060  -22.3670 C   0  0  0  0  0  0  0  0  0  0  0  0
  -12.9630   -1.8450  -22.3900 C   0  0  0  0  0  0  0  0  0  0  0  0
  -14.0010   -2.6880  -21.2700 Cl  0  0  0  0  0  0  0  0  0  0  0  0
  -13.5060   -0.8830  -23.2130 C   0  0  0  0  0  0  0  0  0  0  0  0
  -12.6750   -0.1530  -24.0440 C   0  0  0  0  0  0  0  0  0  0  0  0
  -11.3100   -0.3830  -24.0130 C   0  0  0  0  0  0  0  0  0  0  0  0
  -10.5630    0.4560  -24.8070 O   0  0  0  0  0  0  0  0  0  0  0  0
   -9.1220    0.4150  -24.6510 C   0  0  0  0  0  0  0  0  0  0  0  0
   -8.5840   -0.9690  -24.3680 C   0  0  0  0  0  0  0  0  0  0  0  0
   -8.9550   -3.1130  -23.2280 C   0  0  0  0  0  0  0  0  0  0  0  0
   -9.6180   -3.7260  -24.3680 N   0  0  0  0  0  0  0  0  0  0  0  0
   -9.2940   -4.9360  -24.8430 C   0  0  0  0  0  0  0  0  0  0  0  0
   -8.4340   -5.6510  -24.3750 O   0  0  0  0  0  0  0  0  0  0  0  0
  -10.0600   -5.2550  -25.9000 O   0  0  0  0  0  0  0  0  0  0  0  0
   -9.9390   -6.6160  -26.3810 C   0  0  0  0  0  0  0  0  0  0  0  0
   -7.4630   -1.4490  -21.3920 N   0  0  0  0  0  0  0  0  0  0  0  0
   -6.7470   -0.9420  -20.2830 C   0  0  0  0  0  0  0  0  0  0  0  0
   -5.6300   -0.0800  -20.5220 C   0  0  0  0  0  0  0  0  0  0  0  0
   -5.1240    0.2240  -21.8140 C   0  0  0  0  0  0  0  0  0  0  0  0
   -4.0490    1.0500  -21.9740 C   0  0  0  0  0  0  0  0  0  0  0  0
   -3.4260    1.6220  -20.8710 C   0  0  0  0  0  0  0  0  0  0  0  0
   -3.8780    1.3690  -19.6070 C   0  0  0  0  0  0  0  0  0  0  0  0
   -4.9870    0.5120  -19.3950 C   0  0  0  0  0  0  0  0  0  0  0  0
   -5.4930    0.2030  -18.1090 C   0  0  0  0  0  0  0  0  0  0  0  0
   -6.5290   -0.5940  -17.8880 N   0  0  0  0  0  0  0  0  0  0  0  0
   -7.1260   -1.1470  -18.9550 C   0  0  0  0  0  0  0  0  0  0  0  0
  2  1  2  0
  3  2  1  0
  4  3  1  0
  5  4  2  0
  6  5  1  0
  7  6  1  0
  8  6  2  0
  9  8  1  0
 10  9  2  0
 10  4  1  0
 11 10  1  0
 12 11  1  0
 13 12  1  0
 13  3  1  0
  3 14  1  1
 15 14  1  0
 16 15  1  0
 17 16  2  0
 18 16  1  0
 19 18  1  0
 20  2  1  0
 21 20  1  0
 22 21  1  0
 23 22  2  0
 24 23  1  0
 25 24  2  0
 26 25  1  0
 27 22  1  0
 27 26  2  0
 28 27  1  0
 29 28  2  0
 30 29  1  0
 30 21  2  0
M  END
$$$$

     RDKit          3D

 23 24  0  0  0  0  0  0  0  0999 V2000
   -6.1200   -6.3960  -22.0320 S   0  0  2  0  0  0  0  0  0  0  0  0
   -7.0550   -5.1030  -22.2990 N   0  0  0  0  0  0  0  0  0  0  0  0
   -6.4380   -0.4700  -17.8330 N   0  0  0  0  0  0  0  0  0  0  0  0
   -7.2680   -4.6180  -23.6720 C   0  0  0  0  0  0  0  0  0  0  0  0
  -11.5120   -2.4930  -22.2940 C   0  0  0  0  0  0  0  0  0  0  0  0
   -5.7600   -6.3690  -20.6460 O   0  0  0  0  0  0  0  0  0  0  0  0
   -5.3240    0.0740  -18.3400 C   0  0  0  0  0  0  0  0  0  0  0  0
   -8.5740   -3.8590  -23.8890 C   0  0  0  0  0  0  0  0  0  0  0  0
   -5.8870   -0.5780  -20.5580 C   0  0  0  0  0  0  0  0  0  0  0  0
   -7.0480   -1.1620  -20.0590 C   0  0  0  0  0  0  0  0  0  0  0  0
   -7.9950   -2.0510  -22.2070 C   0  0  0  0  0  0  0  0  0  0  0  0
  -10.3480   -2.2670  -23.0220 C   0  0  0  0  0  0  0  0  0  0  0  0
  -12.6760   -0.8250  -23.5680 C   0  0  0  0  0  0  0  0  0  0  0  0
   -7.2750   -1.0770  -18.6850 C   0  0  0  0  0  0  0  0  0  0  0  0
  -12.6680   -1.7750  -22.5630 C   0  0  0  0  0  0  0  0  0  0  0  0
  -11.5300   -0.6000  -24.3070 C   0  0  0  0  0  0  0  0  0  0  0  0
   -4.6620   -6.1960  -22.9830 C   0  0  0  0  0  0  0  0  0  0  0  0
   -7.9930   -1.8490  -20.8650 N   0  0  0  0  0  0  0  0  0  0  0  0
   -6.8290   -7.5300  -22.5380 O   0  0  0  0  0  0  0  0  0  0  0  0
   -7.2040   -1.5120  -22.9790 O   0  0  0  0  0  0  0  0  0  0  0  0
   -5.0090    0.0460  -19.6870 C   0  0  0  0  0  0  0  0  0  0  0  0
   -9.0680   -3.0260  -22.6940 C   0  0  1  0  0  0  0  0  0  0  0  0
  -10.3730   -1.3200  -24.0380 C   0  0  0  0  0  0  0  0  0  0  0  0
  2  1  1  0
  4  2  1  0
  6  1  2  0
  7  3  2  0
  8  4  1  0
 10  9  1  0
 12  5  2  0
 14 10  2  0
 14  3  1  0
 15 13  2  0
 15  5  1  0
 16 13  1  0
  1 17  1  6
 18 11  1  0
 18 10  1  0
 19  1  2  0
 20 11  2  0
 21  9  2  0
 21  7  1  0
 22 12  1  0
 22 11  1  0
 22  8  1  6
 23 16  2  0
 23 12  1  0
M  END
$$$$

     RDKit          3D

 33 36  0  0  0  0  0  0  0  0999 V2000
  -10.1980    1.0990  -25.4120 O   0  0  0  0  0  0  0  0  0  0  0  0
   -9.8500    0.1370  -24.7510 C   0  0  0  0  0  0  0  0  0  0  0  0
   -8.5380   -0.2650  -24.6930 N   0  0  0  0  0  0  0  0  0  0  0  0
   -7.5600    0.3510  -25.5740 C   0  0  0  0  0  0  0  0  0  0  0  0
   -6.8190    1.5730  -25.0560 C   0  0  0  0  0  0  0  0  0  0  0  0
   -6.3120    2.3840  -25.8320 O   0  0  0  0  0  0  0  0  0  0  0  0
   -6.7080    1.6630  -23.7210 N   0  0  0  0  0  0  0  0  0  0  0  0
   -7.1060    2.8450  -22.9430 C   0  0  2  0  0  0  0  0  0  0  0  0
   -8.4450    3.4000  -23.3990 C   0  0  0  0  0  0  0  0  0  0  0  0
   -6.0150    3.8960  -22.9590 C   0  0  0  0  0  0  0  0  0  0  0  0
  -10.8150   -0.6170  -23.9280 C   0  0  0  0  0  0  0  0  0  0  0  0
  -12.1700   -0.2820  -23.9870 C   0  0  0  0  0  0  0  0  0  0  0  0
  -13.0990   -0.9980  -23.2530 C   0  0  0  0  0  0  0  0  0  0  0  0
  -12.6710   -2.0570  -22.4800 C   0  0  0  0  0  0  0  0  0  0  0  0
  -13.8440   -2.9960  -21.5970 Cl  0  0  0  0  0  0  0  0  0  0  0  0
  -11.3320   -2.3930  -22.3890 C   0  0  0  0  0  0  0  0  0  0  0  0
  -10.3850   -1.6530  -23.0910 C   0  0  0  0  0  0  0  0  0  0  0  0
   -8.9080   -1.9310  -22.9080 C   0  0  1  0  0  0  0  0  0  0  0  0
   -8.1550   -1.5890  -24.1960 C   0  0  0  0  0  0  0  0  0  0  0  0
   -8.3770   -1.0840  -21.7500 C   0  0  0  0  0  0  0  0  0  0  0  0
   -8.8680    0.0080  -21.4560 O   0  0  0  0  0  0  0  0  0  0  0  0
   -7.3070   -1.6090  -21.1110 N   0  0  0  0  0  0  0  0  0  0  0  0
   -6.5790   -1.0400  -20.0420 C   0  0  0  0  0  0  0  0  0  0  0  0
   -5.4540   -0.2160  -20.3550 C   0  0  0  0  0  0  0  0  0  0  0  0
   -4.9250   -0.0770  -21.6620 C   0  0  0  0  0  0  0  0  0  0  0  0
   -3.8490    0.7230  -21.9020 C   0  0  0  0  0  0  0  0  0  0  0  0
   -3.2780    1.4110  -20.8600 C   0  0  0  0  0  0  0  0  0  0  0  0
   -2.2070    2.2060  -21.1300 F   0  0  0  0  0  0  0  0  0  0  0  0
   -3.7190    1.3310  -19.5770 C   0  0  0  0  0  0  0  0  0  0  0  0
   -4.8220    0.4890  -19.2920 C   0  0  0  0  0  0  0  0  0  0  0  0
   -5.3250    0.2920  -17.9820 C   0  0  0  0  0  0  0  0  0  0  0  0
   -6.3470   -0.4990  -17.6860 N   0  0  0  0  0  0  0  0  0  0  0  0
   -6.9500   -1.1390  -18.6990 C   0  0  0  0  0  0  0  0  0  0  0  0
  2  1  2  0
  3  2  1  0
  4  3  1  0
  5  4  1  0
  6  5  2  0
  7  5  1  0
  8  7  1  0
  8  9  1  6
 10  8  1  0
 11  2  1  0
 12 11  2  0
 13 12  1  0
 14 13  2  0
 15 14  1  0
 16 14  1  0
 17 16  2  0
 17 11  1  0
 18 17  1  0
 19 18  1  0
 19  3  1  0
 18 20  1  1
 21 20  2  0
 22 20  1  0
 23 22  1  0
 24 23  1  0
 25 24  2  0
 26 25  1  0
 27 26  2  0
 28 27  1  0
 29 27  1  0
 30 24  1  0
 30 29  2  0
 31 30  1  0
 32 31  2  0
 33 32  1  0
 33 23  2  0
M  END
$$$$

     RDKit          3D

 27 30  0  0  0  0  0  0  0  0999 V2000
   -8.9520   -0.0380  -21.2280 O   0  0  0  0  0  0  0  0  0  0  0  0
   -8.3730   -1.0130  -21.6800 C   0  0  0  0  0  0  0  0  0  0  0  0
   -8.9230   -1.7490  -22.9280 C   0  0  1  0  0  0  0  0  0  0  0  0
  -10.3980   -1.5150  -23.1640 C   0  0  0  0  0  0  0  0  0  0  0  0
  -11.3560   -2.0960  -22.3340 C   0  0  0  0  0  0  0  0  0  0  0  0
  -12.6800   -1.7090  -22.4210 C   0  0  0  0  0  0  0  0  0  0  0  0
  -13.8460   -2.4490  -21.3710 Cl  0  0  0  0  0  0  0  0  0  0  0  0
  -13.0690   -0.7400  -23.3300 C   0  0  0  0  0  0  0  0  0  0  0  0
  -14.7380   -0.2950  -23.4810 Cl  0  0  0  0  0  0  0  0  0  0  0  0
  -12.1390   -0.1440  -24.1610 C   0  0  0  0  0  0  0  0  0  0  0  0
  -10.8180   -0.5410  -24.0730 C   0  0  0  0  0  0  0  0  0  0  0  0
   -9.9630    0.0570  -24.9680 O   0  0  0  0  0  0  0  0  0  0  0  0
   -8.5790    0.1100  -24.5660 C   0  0  0  0  0  0  0  0  0  0  0  0
   -8.0660   -1.2330  -24.0940 C   0  0  0  0  0  0  0  0  0  0  0  0
   -8.6910   -3.1160  -22.6130 O   0  0  0  0  0  0  0  0  0  0  0  0
   -8.8810   -4.0650  -23.6720 C   0  0  0  0  0  0  0  0  0  0  0  0
   -7.2210   -1.5060  -21.1790 N   0  0  0  0  0  0  0  0  0  0  0  0
   -6.5300   -0.9790  -20.0650 C   0  0  0  0  0  0  0  0  0  0  0  0
   -5.4370   -0.0950  -20.3080 C   0  0  0  0  0  0  0  0  0  0  0  0
   -4.9690    0.2400  -21.6050 C   0  0  0  0  0  0  0  0  0  0  0  0
   -3.9190    1.0970  -21.7730 C   0  0  0  0  0  0  0  0  0  0  0  0
   -3.2810    1.6590  -20.6750 C   0  0  0  0  0  0  0  0  0  0  0  0
   -3.6880    1.3610  -19.4050 C   0  0  0  0  0  0  0  0  0  0  0  0
   -4.7780    0.4820  -19.1850 C   0  0  0  0  0  0  0  0  0  0  0  0
   -5.2540    0.1440  -17.8950 C   0  0  0  0  0  0  0  0  0  0  0  0
   -6.2680   -0.6840  -17.6700 N   0  0  0  0  0  0  0  0  0  0  0  0
   -6.8810   -1.2190  -18.7380 C   0  0  0  0  0  0  0  0  0  0  0  0
  2  1  2  0
  3  2  1  0
  4  3  1  0
  5  4  2  0
  6  5  1  0
  7  6  1  0
  8  6  2  0
  9  8  1  0
 10  8  1  0
 11 10  2  0
 11  4  1  0
 12 11  1  0
 13 12  1  0
 14 13  1  0
 14  3  1  0
  3 15  1  1
 16 15  1  0
 17  2  1  0
 18 17  1  0
 19 18  1  0
 20 19  2  0
 21 20  1  0
 22 21  2  0
 23 22  1  0
 24 23  2  0
 24 19  1  0
 25 24  1  0
 26 25  2  0
 27 26  1  0
 27 18  2  0
M  END
$$$$

     RDKit          3D

 11 12  0  0  0  0  0  0  0  0999 V2000
   -5.3740   -4.4310  -23.7850 C   0  0  0  0  0  0  0  0  0  0  0  0
   -5.6030   -5.1700  -22.6060 C   0  0  0  0  0  0  0  0  0  0  0  0
   -4.8560   -6.3890  -22.7240 C   0  0  0  0  0  0  0  0  0  0  0  0
   -5.8420   -5.9920  -19.8140 O   0  0  0  0  0  0  0  0  0  0  0  0
   -6.0430   -3.2400  -24.0510 C   0  0  0  0  0  0  0  0  0  0  0  0
   -4.5030   -5.1620  -24.5590 N   0  0  0  0  0  0  0  0  0  0  0  0
   -7.2270   -3.4950  -21.9620 C   0  0  0  0  0  0  0  0  0  0  0  0
   -6.5270   -4.6680  -21.6740 C   0  0  0  0  0  0  0  0  0  0  0  0
   -6.9820   -2.7910  -23.1340 C   0  0  0  0  0  0  0  0  0  0  0  0
   -6.6730   -5.2880  -20.3280 C   0  0  0  0  0  0  0  0  0  0  0  0
   -4.2080   -6.3360  -23.9140 C   0  0  0  0  0  0  0  0  0  0  0  0
  2  1  2  0
  3  2  1  0
  5  1  1  0
  6  1  1  0
  8  7  2  0
  8  2  1  0
  9  7  1  0
  9  5  2  0
 10  4  2  0
 10  8  1  0
 11  3  2  0
 11  6  1  0
M  END
$$$$

     RDKit          3D

 17 18  0  0  0  0  0  0  0  0999 V2000
  -21.5820  -24.0750  -20.0230 N   0  0  0  0  0  0  0  0  0  0  0  0
  -24.0890  -21.5550  -20.2020 C   0  0  0  0  0  0  0  0  0  0  0  0
  -22.9620  -22.3510  -20.4820 O   0  0  0  0  0  0  0  0  0  0  0  0
  -22.6980  -23.3940  -19.6180 C   0  0  0  0  0  0  0  0  0  0  0  0
  -20.6060  -23.2430  -14.8000 C   0  0  0  0  0  0  0  0  0  0  0  0
  -20.8030  -24.2840  -15.7180 C   0  0  0  0  0  0  0  0  0  0  0  0
  -21.1040  -25.1820  -19.3380 C   0  0  0  0  0  0  0  0  0  0  0  0
  -20.3060  -27.3380  -18.5530 C   0  0  0  0  0  0  0  0  0  0  0  0
  -19.8780  -28.7470  -18.4260 C   0  0  0  0  0  0  0  0  0  0  0  0
  -20.6160  -25.2030  -18.0200 C   0  0  0  0  0  0  0  0  0  0  0  0
  -20.4780  -24.0900  -17.0710 C   0  0  0  0  0  0  0  0  0  0  0  0
  -19.9680  -22.8590  -17.5020 C   0  0  0  0  0  0  0  0  0  0  0  0
  -19.7720  -21.8220  -16.5770 C   0  0  0  0  0  0  0  0  0  0  0  0
  -20.0920  -22.0120  -15.2250 C   0  0  0  0  0  0  0  0  0  0  0  0
  -20.1640  -26.4640  -17.5900 N   0  0  0  0  0  0  0  0  0  0  0  0
  -23.3740  -23.6420  -18.6350 O   0  0  0  0  0  0  0  0  0  0  0  0
  -21.0020  -26.7400  -20.0460 S   0  0  0  0  0  0  0  0  0  0  0  0
  3  2  1  0
  4  3  1  0
  4  1  1  0
  6  5  2  0
  7  1  1  0
  9  8  1  0
 10  7  2  0
 11 10  1  0
 11  6  1  0
 12 11  2  0
 13 12  1  0
 14 13  2  0
 14  5  1  0
 15  8  2  0
 15 10  1  0
 16  4  2  0
 17  8  1  0
 17  7  1  0
M  END
$$$$

     RDKit          3D

 21 22  0  0  0  0  0  0  0  0999 V2000
   -6.7680   -2.4610  -21.7750 N   0  0  0  0  0  0  0  0  0  0  0  0
  -10.8500   -0.7810  -23.4200 C   0  0  0  0  0  0  0  0  0  0  0  0
   -4.3720   -0.3530  -20.6180 C   0  0  0  0  0  0  0  0  0  0  0  0
   -9.0590   -2.2470  -23.0260 O   0  0  0  0  0  0  0  0  0  0  0  0
   -7.0380   -3.4500  -22.8100 C   0  0  0  0  0  0  0  0  0  0  0  0
   -6.3460    0.2580  -17.1280 O   0  0  0  0  0  0  0  0  0  0  0  0
  -12.2070   -0.4810  -23.4160 C   0  0  0  0  0  0  0  0  0  0  0  0
  -10.4190   -2.0880  -23.1170 C   0  0  0  0  0  0  0  0  0  0  0  0
  -11.3510   -3.0790  -22.8460 C   0  0  0  0  0  0  0  0  0  0  0  0
  -12.7010   -2.7630  -22.8380 C   0  0  0  0  0  0  0  0  0  0  0  0
   -5.3630   -1.3020  -20.1980 C   0  0  0  0  0  0  0  0  0  0  0  0
   -5.7500   -0.0120  -18.1780 C   0  0  0  0  0  0  0  0  0  0  0  0
   -5.6670   -2.5100  -21.0250 C   0  0  0  0  0  0  0  0  0  0  0  0
   -4.1170    0.6910  -19.8070 C   0  0  0  0  0  0  0  0  0  0  0  0
   -6.0200   -1.1260  -19.0090 C   0  0  0  0  0  0  0  0  0  0  0  0
  -10.2110    1.4760  -23.9110 C   0  0  0  0  0  0  0  0  0  0  0  0
   -4.7830    0.8520  -18.6340 N   0  0  0  0  0  0  0  0  0  0  0  0
   -9.8480    0.1140  -23.6820 O   0  0  0  0  0  0  0  0  0  0  0  0
   -4.9020   -3.4730  -21.0420 O   0  0  0  0  0  0  0  0  0  0  0  0
   -8.5060   -3.5710  -23.0940 C   0  0  0  0  0  0  0  0  0  0  0  0
  -13.1230   -1.4760  -23.1150 C   0  0  0  0  0  0  0  0  0  0  0  0
  5  1  1  0
  7  2  2  0
  8  4  1  0
  8  2  1  0
  9  8  2  0
 10  9  1  0
 11  3  1  0
 12  6  2  0
 13  1  1  0
 13 11  1  0
 14  3  2  0
 15 12  1  0
 15 11  2  0
 17 12  1  0
 17 14  1  0
 18 16  1  0
 18  2  1  0
 19 13  2  0
 20  5  1  0
 20  4  1  0
 21 10  2  0
 21  7  1  0
M  END
$$$$

     RDKit          3D

 21 22  0  0  0  0  0  0  0  0999 V2000
   -5.0170   -6.1670  -20.3110 N   0  0  0  0  0  0  0  0  0  0  0  0
   -5.2590   -6.0890  -21.4280 C   0  0  0  0  0  0  0  0  0  0  0  0
   -5.6310   -5.9650  -22.7930 C   0  0  2  0  0  0  0  0  0  0  0  0
   -6.8920   -5.5460  -23.0400 C   0  0  0  0  0  0  0  0  0  0  0  0
   -7.7090   -4.8960  -22.1320 N   0  0  0  0  0  0  0  0  0  0  0  0
   -7.3280   -4.0640  -21.1210 C   0  0  0  0  0  0  0  0  0  0  0  0
   -8.4480   -3.5710  -20.2330 C   0  0  0  0  0  0  0  0  0  0  0  0
   -6.1950   -3.5940  -21.0410 O   0  0  0  0  0  0  0  0  0  0  0  0
   -7.4300   -5.7140  -24.2780 N   0  0  0  0  0  0  0  0  0  0  0  0
   -6.7690   -6.2890  -25.3280 C   0  0  0  0  0  0  0  0  0  0  0  0
   -7.6200   -6.3780  -26.8590 S   0  0  0  0  0  0  0  0  0  0  0  0
   -9.3280   -6.5870  -26.3470 C   0  0  0  0  0  0  0  0  0  0  0  0
   -4.7140   -6.4980  -23.8880 C   0  0  2  0  0  0  0  0  0  0  0  0
   -5.4960   -6.7360  -25.1780 C   0  0  1  0  0  0  0  0  0  0  0  0
   -4.8900   -7.5040  -26.2060 C   0  0  0  0  0  0  0  0  0  0  0  0
   -4.3710   -8.1390  -27.0070 N   0  0  0  0  0  0  0  0  0  0  0  0
   -4.0010   -7.7230  -23.2540 C   0  0  0  0  0  0  0  0  0  0  0  0
   -2.5730   -7.9610  -23.7270 C   0  0  0  0  0  0  0  0  0  0  0  0
   -1.7360   -6.7060  -23.5960 C   0  0  0  0  0  0  0  0  0  0  0  0
   -2.3440   -5.5830  -24.4070 C   0  0  0  0  0  0  0  0  0  0  0  0
   -3.7610   -5.2770  -23.9350 C   0  0  0  0  0  0  0  0  0  0  0  0
  2  1  3  0
  3  2  1  1
  4  3  1  0
  5  4  2  3
  6  5  1  0
  7  6  1  0
  8  6  2  0
  9  4  1  0
 10  9  2  0
 11 10  1  0
 12 11  1  0
 13  3  1  0
 14 10  1  0
 14 13  1  0
 14 15  1  1
 16 15  3  0
 13 17  1  1
 18 17  1  0
 19 18  1  0
 20 19  1  0
 21 20  1  0
 21 13  1  0
M  CHG  1   5   1
M  END
$$$$

     RDKit          3D

 26 29  0  0  0  0  0  0  0  0999 V2000
   -9.1560    0.0580  -21.4200 O   0  0  0  0  0  0  0  0  0  0  0  0
   -8.6200   -0.9520  -21.8810 C   0  0  0  0  0  0  0  0  0  0  0  0
   -7.4970   -1.5000  -21.3520 N   0  0  0  0  0  0  0  0  0  0  0  0
   -6.7520   -1.0360  -20.2420 C   0  0  0  0  0  0  0  0  0  0  0  0
   -5.5800   -0.2530  -20.4880 C   0  0  0  0  0  0  0  0  0  0  0  0
   -5.0640    0.0080  -21.7860 C   0  0  0  0  0  0  0  0  0  0  0  0
   -3.9660    0.8030  -21.9590 C   0  0  0  0  0  0  0  0  0  0  0  0
   -3.3280    1.3770  -20.8650 C   0  0  0  0  0  0  0  0  0  0  0  0
   -3.7840    1.1570  -19.5970 C   0  0  0  0  0  0  0  0  0  0  0  0
   -4.9180    0.3340  -19.3720 C   0  0  0  0  0  0  0  0  0  0  0  0
   -5.4540    0.0920  -18.0810 C   0  0  0  0  0  0  0  0  0  0  0  0
   -6.5340   -0.6450  -17.8500 N   0  0  0  0  0  0  0  0  0  0  0  0
   -7.1490   -1.1900  -18.9130 C   0  0  0  0  0  0  0  0  0  0  0  0
   -9.1910   -1.7020  -23.0860 C   0  0  1  0  0  0  0  0  0  0  0  0
  -10.6950   -1.5090  -23.1600 C   0  0  0  0  0  0  0  0  0  0  0  0
  -11.5320   -2.2630  -22.3360 C   0  0  0  0  0  0  0  0  0  0  0  0
  -12.8760   -1.9570  -22.2510 C   0  0  0  0  0  0  0  0  0  0  0  0
  -13.8790   -2.8600  -21.1560 Cl  0  0  0  0  0  0  0  0  0  0  0  0
   -8.5150   -1.2850  -24.4040 C   0  0  0  0  0  0  0  0  0  0  0  0
   -8.8260    0.1380  -24.6190 N   0  0  0  0  0  0  0  0  0  0  0  0
  -10.3550    0.3710  -25.1330 S   0  0  2  0  0  0  0  0  0  0  0  0
  -10.4930   -0.2700  -26.4090 O   0  0  0  0  0  0  0  0  0  0  0  0
  -10.6560    1.7670  -25.0270 O   0  0  0  0  0  0  0  0  0  0  0  0
  -11.2890   -0.5120  -23.9430 C   0  0  0  0  0  0  0  0  0  0  0  0
  -12.6410   -0.2170  -23.8490 C   0  0  0  0  0  0  0  0  0  0  0  0
  -13.4350   -0.9340  -22.9780 C   0  0  0  0  0  0  0  0  0  0  0  0
  2  1  2  0
  3  2  1  0
  4  3  1  0
  5  4  1  0
  6  5  2  0
  7  6  1  0
  8  7  2  0
  9  8  1  0
 10  5  1  0
 10  9  2  0
 11 10  1  0
 12 11  2  0
 13 12  1  0
 13  4  2  0
 14  2  1  1
 15 14  1  0
 16 15  2  0
 17 16  1  0
 18 17  1  0
 19 14  1  0
 20 19  1  0
 21 20  1  1
 22 21  2  0
 23 21  2  0
 24 21  1  0
 24 15  1  0
 25 24  2  0
 26 25  1  0
 26 17  2  0
M  END
$$$$

     RDKit          3D

 24 27  0  0  0  0  0  0  0  0999 V2000
   -8.8880   -0.3320  -21.1510 O   0  0  0  0  0  0  0  0  0  0  0  0
   -8.2870   -1.3680  -21.4490 C   0  0  0  0  0  0  0  0  0  0  0  0
   -8.8550   -2.3810  -22.5060 C   0  0  2  0  0  0  0  0  0  0  0  0
   -7.9650   -2.3240  -23.6800 N   0  0  0  0  0  0  0  0  0  0  0  0
   -7.9350   -0.9750  -24.2660 C   0  0  0  0  0  0  0  0  0  0  0  0
   -9.2760   -0.6350  -24.8800 C   0  0  0  0  0  0  0  0  0  0  0  0
  -10.2430   -1.9470  -22.9300 C   0  0  0  0  0  0  0  0  0  0  0  0
  -10.4290   -1.0690  -24.0060 C   0  0  0  0  0  0  0  0  0  0  0  0
  -11.7260   -0.6790  -24.3380 C   0  0  0  0  0  0  0  0  0  0  0  0
  -12.8180   -1.1700  -23.6470 C   0  0  0  0  0  0  0  0  0  0  0  0
  -11.3460   -2.4530  -22.2440 C   0  0  0  0  0  0  0  0  0  0  0  0
  -12.6130   -2.0570  -22.6160 C   0  0  0  0  0  0  0  0  0  0  0  0
  -13.9780   -2.7080  -21.7580 Cl  0  0  0  0  0  0  0  0  0  0  0  0
   -7.0920   -1.7240  -20.9280 N   0  0  0  0  0  0  0  0  0  0  0  0
   -6.3340   -1.0450  -19.9550 C   0  0  0  0  0  0  0  0  0  0  0  0
   -5.2750   -0.1900  -20.3830 C   0  0  0  0  0  0  0  0  0  0  0  0
   -4.8850   -0.0350  -21.7420 C   0  0  0  0  0  0  0  0  0  0  0  0
   -3.8660    0.8100  -22.0890 C   0  0  0  0  0  0  0  0  0  0  0  0
   -3.1890    1.5380  -21.1200 C   0  0  0  0  0  0  0  0  0  0  0  0
   -3.5280    1.4270  -19.8020 C   0  0  0  0  0  0  0  0  0  0  0  0
   -4.5740    0.5580  -19.3990 C   0  0  0  0  0  0  0  0  0  0  0  0
   -4.9650    0.3890  -18.0470 C   0  0  0  0  0  0  0  0  0  0  0  0
   -5.9410   -0.4150  -17.6470 N   0  0  0  0  0  0  0  0  0  0  0  0
   -6.5980   -1.1050  -18.5860 C   0  0  0  0  0  0  0  0  0  0  0  0
  2  1  2  0
  3  2  1  1
  4  3  1  0
  5  4  1  0
  6  5  1  0
  7  3  1  0
  8  7  2  0
  8  6  1  0
  9  8  1  0
 10  9  2  0
 11  7  1  0
 12 11  2  0
 12 10  1  0
 13 12  1  0
 14  2  1  0
 15 14  1  0
 16 15  1  0
 17 16  2  0
 18 17  1  0
 19 18  2  0
 20 19  1  0
 21 20  2  0
 21 16  1  0
 22 21  1  0
 23 22  2  0
 24 23  1  0
 24 15  2  0
M  CHG  1   4   1
M  END
$$$$

     RDKit          3D

 30 33  0  0  0  0  0  0  0  0999 V2000
  -10.5480    1.9490  -24.5950 O   0  0  0  0  0  0  0  0  0  0  0  0
  -10.1760    0.8230  -24.3260 C   0  0  0  0  0  0  0  0  0  0  0  0
   -8.8660    0.4240  -24.5080 N   0  0  0  0  0  0  0  0  0  0  0  0
   -7.9710    1.2510  -25.2940 C   0  0  0  0  0  0  0  0  0  0  0  0
   -7.1480    2.2610  -24.5140 C   0  0  0  0  0  0  0  0  0  0  0  0
   -6.1670    2.7940  -25.0310 O   0  0  0  0  0  0  0  0  0  0  0  0
   -7.5260    2.5290  -23.2670 N   0  0  0  0  0  0  0  0  0  0  0  0
   -6.7750    3.4190  -22.4020 C   0  0  0  0  0  0  0  0  0  0  0  0
  -11.0690   -0.1480  -23.6640 C   0  0  0  0  0  0  0  0  0  0  0  0
  -12.4290    0.1510  -23.5320 C   0  0  0  0  0  0  0  0  0  0  0  0
  -13.2780   -0.7320  -22.8890 C   0  0  0  0  0  0  0  0  0  0  0  0
  -12.7660   -1.9080  -22.3810 C   0  0  0  0  0  0  0  0  0  0  0  0
  -13.8230   -2.9960  -21.5240 Cl  0  0  0  0  0  0  0  0  0  0  0  0
  -11.4240   -2.2210  -22.4870 C   0  0  0  0  0  0  0  0  0  0  0  0
  -10.5520   -1.3220  -23.1030 C   0  0  0  0  0  0  0  0  0  0  0  0
   -9.0560   -1.5590  -23.0590 C   0  0  1  0  0  0  0  0  0  0  0  0
   -8.4100   -0.9540  -24.3060 C   0  0  0  0  0  0  0  0  0  0  0  0
   -8.4900   -0.8550  -21.8230 C   0  0  0  0  0  0  0  0  0  0  0  0
   -8.9770    0.1870  -21.3830 O   0  0  0  0  0  0  0  0  0  0  0  0
   -7.3870   -1.4360  -21.2890 N   0  0  0  0  0  0  0  0  0  0  0  0
   -6.6210   -0.9760  -20.1890 C   0  0  0  0  0  0  0  0  0  0  0  0
   -5.5230   -0.0880  -20.4370 C   0  0  0  0  0  0  0  0  0  0  0  0
   -5.0400    0.2270  -21.7350 C   0  0  0  0  0  0  0  0  0  0  0  0
   -3.9710    1.0630  -21.9030 C   0  0  0  0  0  0  0  0  0  0  0  0
   -3.3400    1.6360  -20.8040 C   0  0  0  0  0  0  0  0  0  0  0  0
   -3.7670    1.3630  -19.5360 C   0  0  0  0  0  0  0  0  0  0  0  0
   -4.8600    0.4870  -19.3160 C   0  0  0  0  0  0  0  0  0  0  0  0
   -5.3150    0.1270  -18.0240 C   0  0  0  0  0  0  0  0  0  0  0  0
   -6.3180   -0.7120  -17.7940 N   0  0  0  0  0  0  0  0  0  0  0  0
   -6.9380   -1.2410  -18.8580 C   0  0  0  0  0  0  0  0  0  0  0  0
  2  1  2  0
  3  2  1  0
  4  3  1  0
  5  4  1  0
  6  5  2  0
  7  5  1  0
  8  7  1  0
  9  2  1  0
 10  9  2  0
 11 10  1  0
 12 11  2  0
 13 12  1  0
 14 12  1  0
 15 14  2  0
 15  9  1  0
 16 15  1  0
 17 16  1  0
 17  3  1  0
 16 18  1  1
 19 18  2  0
 20 18  1  0
 21 20  1  0
 22 21  1  0
 23 22  2  0
 24 23  1  0
 25 24  2  0
 26 25  1  0
 27 22  1  0
 27 26  2  0
 28 27  1  0
 29 28  2  0
 30 29  1  0
 30 21  2  0
M  END
$$$$

     RDKit          3D

 32 36  0  0  0  0  0  0  0  0999 V2000
  -10.7120    1.8030  -24.7850 O   0  0  0  0  0  0  0  0  0  0  0  0
  -10.2980    0.7160  -24.4240 C   0  0  0  0  0  0  0  0  0  0  0  0
   -9.0020    0.3440  -24.6040 N   0  0  0  0  0  0  0  0  0  0  0  0
   -8.1280    1.1420  -25.4480 C   0  0  0  0  0  0  0  0  0  0  0  0
   -7.4440    2.3230  -24.7760 C   0  0  0  0  0  0  0  0  0  0  0  0
   -6.6050    2.9820  -25.3910 O   0  0  0  0  0  0  0  0  0  0  0  0
   -7.7610    2.5880  -23.5140 N   0  0  0  0  0  0  0  0  0  0  0  0
   -7.0400    3.5690  -22.7220 C   0  0  0  0  0  0  0  0  0  0  0  0
  -11.1700   -0.2460  -23.7270 C   0  0  0  0  0  0  0  0  0  0  0  0
  -12.5450   -0.0200  -23.7140 C   0  0  0  0  0  0  0  0  0  0  0  0
  -13.3900   -0.8870  -23.0480 C   0  0  0  0  0  0  0  0  0  0  0  0
  -12.8570   -1.9930  -22.4190 C   0  0  0  0  0  0  0  0  0  0  0  0
  -13.9170   -3.0660  -21.5540 Cl  0  0  0  0  0  0  0  0  0  0  0  0
  -11.5000   -2.2620  -22.4320 C   0  0  0  0  0  0  0  0  0  0  0  0
  -10.6410   -1.3680  -23.0680 C   0  0  0  0  0  0  0  0  0  0  0  0
   -9.1240   -1.5110  -22.9540 C   0  0  1  0  0  0  0  0  0  0  0  0
   -8.5320   -1.0070  -24.2970 C   0  0  0  0  0  0  0  0  0  0  0  0
   -8.5680   -0.6410  -21.8260 C   0  0  0  0  0  0  0  0  0  0  0  0
   -8.9850    0.4540  -21.4910 O   0  0  0  0  0  0  0  0  0  0  0  0
   -7.5140   -1.2950  -21.2660 N   0  0  0  0  0  0  0  0  0  0  0  0
   -7.2880   -2.6230  -21.8680 C   0  0  0  0  0  0  0  0  0  0  0  0
   -8.6150   -2.9220  -22.5640 C   0  0  0  0  0  0  0  0  0  0  0  0
   -6.7000   -0.7840  -20.2060 C   0  0  0  0  0  0  0  0  0  0  0  0
   -5.5880    0.0580  -20.5020 C   0  0  0  0  0  0  0  0  0  0  0  0
   -5.1640    0.3830  -21.8190 C   0  0  0  0  0  0  0  0  0  0  0  0
   -4.0970    1.2110  -22.0300 C   0  0  0  0  0  0  0  0  0  0  0  0
   -3.4010    1.7580  -20.9570 C   0  0  0  0  0  0  0  0  0  0  0  0
   -3.7690    1.4750  -19.6730 C   0  0  0  0  0  0  0  0  0  0  0  0
   -4.8630    0.6120  -19.4080 C   0  0  0  0  0  0  0  0  0  0  0  0
   -5.2870    0.2750  -18.0940 C   0  0  0  0  0  0  0  0  0  0  0  0
   -6.3220   -0.5120  -17.8220 N   0  0  0  0  0  0  0  0  0  0  0  0
   -6.9970   -1.0200  -18.8650 C   0  0  0  0  0  0  0  0  0  0  0  0
  2  1  2  0
  3  2  1  0
  4  3  1  0
  5  4  1  0
  6  5  2  0
  7  5  1  0
  8  7  1  0
  9  2  1  0
 10  9  2  0
 11 10  1  0
 12 11  2  0
 13 12  1  0
 14 12  1  0
 15 14  2  0
 15  9  1  0
 16 15  1  0
 16 17  1  6
 17  3  1  0
 18 16  1  0
 19 18  2  0
 20 18  1  0
 21 20  1  0
 22 21  1  0
 22 16  1  0
 23 20  1  0
 24 23  1  0
 25 24  2  0
 26 25  1  0
 27 26  2  0
 28 27  1  0
 29 24  1  0
 29 28  2  0
 30 29  1  0
 31 30  2  0
 32 31  1  0
 32 23  2  0
M  END
$$$$

     RDKit          3D

 31 34  0  0  0  0  0  0  0  0999 V2000
   -9.1250    0.2410  -21.5200 O   0  0  0  0  0  0  0  0  0  0  0  0
   -8.7400   -0.8920  -21.7880 C   0  0  0  0  0  0  0  0  0  0  0  0
   -7.9010   -1.5260  -20.9510 N   0  0  0  0  0  0  0  0  0  0  0  0
   -6.8960   -1.0950  -20.0630 C   0  0  0  0  0  0  0  0  0  0  0  0
   -5.8930   -0.1540  -20.4610 C   0  0  0  0  0  0  0  0  0  0  0  0
   -5.5440    0.1010  -21.8140 C   0  0  0  0  0  0  0  0  0  0  0  0
   -4.4640    0.8780  -22.1300 C   0  0  0  0  0  0  0  0  0  0  0  0
   -3.6880    1.4500  -21.1330 C   0  0  0  0  0  0  0  0  0  0  0  0
   -3.9930    1.2570  -19.8160 C   0  0  0  0  0  0  0  0  0  0  0  0
   -5.0980    0.4510  -19.4440 C   0  0  0  0  0  0  0  0  0  0  0  0
   -5.3930    0.1290  -18.1000 C   0  0  0  0  0  0  0  0  0  0  0  0
   -6.3260   -0.7290  -17.7290 N   0  0  0  0  0  0  0  0  0  0  0  0
   -7.0270   -1.3320  -18.6940 C   0  0  0  0  0  0  0  0  0  0  0  0
   -9.3220   -1.6670  -23.0000 C   0  0  1  0  0  0  0  0  0  0  0  0
  -10.8200   -1.3730  -23.0580 C   0  0  0  0  0  0  0  0  0  0  0  0
  -11.6920   -2.0740  -22.2300 C   0  0  0  0  0  0  0  0  0  0  0  0
  -13.0350   -1.7500  -22.2260 C   0  0  0  0  0  0  0  0  0  0  0  0
  -14.0810   -2.5390  -21.0770 Cl  0  0  0  0  0  0  0  0  0  0  0  0
  -13.5540   -0.7760  -23.0550 C   0  0  0  0  0  0  0  0  0  0  0  0
  -12.7100   -0.0960  -23.9130 C   0  0  0  0  0  0  0  0  0  0  0  0
  -11.3520   -0.3830  -23.9000 C   0  0  0  0  0  0  0  0  0  0  0  0
  -10.5810    0.4190  -24.7070 O   0  0  0  0  0  0  0  0  0  0  0  0
   -9.1430    0.2850  -24.6060 C   0  0  0  0  0  0  0  0  0  0  0  0
   -8.6910   -1.1270  -24.3030 C   0  0  0  0  0  0  0  0  0  0  0  0
   -9.1070   -3.1970  -22.9250 C   0  0  0  0  0  0  0  0  0  0  0  0
   -7.7870   -3.5610  -23.3080 O   0  0  0  0  0  0  0  0  0  0  0  0
   -7.7600   -4.7200  -24.1300 C   0  0  0  0  0  0  0  0  0  0  0  0
   -7.0260   -5.8890  -23.5120 C   0  0  0  0  0  0  0  0  0  0  0  0
   -7.5950   -6.9750  -23.4170 O   0  0  0  0  0  0  0  0  0  0  0  0
   -5.7550   -5.7230  -23.1650 N   0  0  0  0  0  0  0  0  0  0  0  0
   -4.8570   -6.8420  -22.9350 C   0  0  0  0  0  0  0  0  0  0  0  0
  2  1  2  0
  3  2  1  0
  4  3  1  0
  5  4  1  0
  6  5  2  0
  7  6  1  0
  8  7  2  0
  9  8  1  0
 10  5  1  0
 10  9  2  0
 11 10  1  0
 12 11  2  0
 13 12  1  0
 13  4  2  0
 14  2  1  0
 15 14  1  0
 16 15  2  0
 17 16  1  0
 18 17  1  0
 19 17  2  0
 20 19  1  0
 21 20  2  0
 21 15  1  0
 22 21  1  0
 23 22  1  0
 24 23  1  0
 24 14  1  0
 14 25  1  1
 26 25  1  0
 27 26  1  0
 28 27  1  0
 29 28  2  0
 30 28  1  0
 31 30  1  0
M  END
$$$$

     RDKit          3D

 13 13  0  0  0  0  0  0  0  0999 V2000
    2.3360    5.2680    1.5020 N   0  0  0  0  0  0  0  0  0  0  0  0
    1.5010    4.2130    1.0900 C   0  0  0  0  0  0  0  0  0  0  0  0
    1.0370    1.9860    0.0970 C   0  0  0  0  0  0  0  0  0  0  0  0
    1.2580    1.2430   -0.9670 C   0  0  0  0  0  0  0  0  0  0  0  0
    0.3540    0.3620   -1.4190 C   0  0  0  0  0  0  0  0  0  0  0  0
   -0.8230    0.2690   -0.7640 C   0  0  0  0  0  0  0  0  0  0  0  0
   -0.1240    1.8770    0.6720 C   0  0  0  0  0  0  0  0  0  0  0  0
    0.8370    7.0780    1.0730 C   0  0  0  0  0  0  0  0  0  0  0  0
    1.8090    6.4630    2.0490 C   0  0  1  0  0  0  0  0  0  0  0  0
    1.1370    5.9910    3.2970 C   0  0  0  0  0  0  0  0  0  0  0  0
   -1.0760    1.0350    0.2890 C   0  0  0  0  0  0  0  0  0  0  0  0
    1.9880    2.9420    0.5290 N   0  0  0  0  0  0  0  0  0  0  0  0
    0.3430    4.4550    1.2270 O   0  0  0  0  0  0  0  0  0  0  0  0
  2  1  1  0
  4  3  2  0
  5  4  1  0
  6  5  2  0
  7  3  1  0
  9  1  1  0
  9  8  1  6
 10  9  1  0
 11  7  2  0
 11  6  1  0
 12  3  1  0
 12  2  1  0
 13  2  2  0
M  END
$$$$

     RDKit          3D

 25 28  0  0  0  0  0  0  0  0999 V2000
  -14.1260   -2.9050  -21.1110 Cl  0  0  0  0  0  0  0  0  0  0  0  0
  -13.1100   -2.0000  -22.1940 C   0  0  0  0  0  0  0  0  0  0  0  0
  -13.6830   -1.0740  -23.0380 C   0  0  0  0  0  0  0  0  0  0  0  0
  -12.8720   -0.3390  -23.8860 C   0  0  0  0  0  0  0  0  0  0  0  0
  -11.7470   -2.2100  -22.1620 C   0  0  0  0  0  0  0  0  0  0  0  0
  -10.9130   -1.4740  -22.9990 C   0  0  0  0  0  0  0  0  0  0  0  0
  -11.5000   -0.5490  -23.8720 C   0  0  0  0  0  0  0  0  0  0  0  0
  -10.7870    0.1500  -24.8180 O   0  0  0  0  0  0  0  0  0  0  0  0
   -9.3510    0.1790  -24.6450 C   0  0  0  0  0  0  0  0  0  0  0  0
   -8.7920   -1.1750  -24.2940 C   0  0  0  0  0  0  0  0  0  0  0  0
   -9.4100   -1.6730  -22.9770 C   0  0  1  0  0  0  0  0  0  0  0  0
   -8.8200   -0.9210  -21.7810 C   0  0  0  0  0  0  0  0  0  0  0  0
   -9.3900    0.0330  -21.2640 O   0  0  0  0  0  0  0  0  0  0  0  0
   -7.5610   -1.2730  -21.4590 N   0  0  0  0  0  0  0  0  0  0  0  0
   -6.8130   -0.9890  -20.3040 C   0  0  0  0  0  0  0  0  0  0  0  0
   -7.3170   -0.9950  -19.0030 C   0  0  0  0  0  0  0  0  0  0  0  0
   -6.6720   -0.4930  -17.9390 N   0  0  0  0  0  0  0  0  0  0  0  0
   -5.4850    0.0850  -18.1430 C   0  0  0  0  0  0  0  0  0  0  0  0
   -5.5710   -0.3770  -20.4950 C   0  0  0  0  0  0  0  0  0  0  0  0
   -4.8570    0.0220  -21.6330 N   0  0  0  0  0  0  0  0  0  0  0  0
   -5.1600   -0.2820  -23.0310 C   0  0  0  0  0  0  0  0  0  0  0  0
   -4.9210    0.1920  -19.4070 C   0  0  0  0  0  0  0  0  0  0  0  0
   -3.8290    0.8960  -19.8910 N   0  0  0  0  0  0  0  0  0  0  0  0
   -3.7730    0.7970  -21.2540 C   0  0  0  0  0  0  0  0  0  0  0  0
   -2.9350    1.2780  -22.0040 O   0  0  0  0  0  0  0  0  0  0  0  0
  2  1  1  0
  3  2  2  0
  4  3  1  0
  5  2  1  0
  6  5  2  0
  7  6  1  0
  7  4  2  0
  8  7  1  0
  9  8  1  0
 10  9  1  0
 11  6  1  0
 11 10  1  0
 11 12  1  1
 13 12  2  0
 14 12  1  0
 15 14  1  0
 16 15  2  0
 17 16  1  0
 18 17  2  0
 19 15  1  0
 20 19  1  0
 21 20  1  0
 22 19  2  0
 22 18  1  0
 23 22  1  0
 24 23  1  0
 24 20  1  0
 25 24  2  0
M  END
$$$$

     RDKit          3D

 22 24  0  0  0  0  0  0  0  0999 V2000
   -9.2200   -0.1350  -21.2640 O   0  0  0  0  0  0  0  0  0  0  0  0
   -8.6600   -1.1650  -21.6450 C   0  0  0  0  0  0  0  0  0  0  0  0
   -9.2420   -2.0410  -22.7370 C   0  0  0  0  0  0  0  0  0  0  0  0
  -10.7200   -1.7930  -22.9240 C   0  0  0  0  0  0  0  0  0  0  0  0
  -11.6480   -2.4790  -22.1490 C   0  0  0  0  0  0  0  0  0  0  0  0
  -12.9780   -2.1790  -22.2860 C   0  0  0  0  0  0  0  0  0  0  0  0
  -13.8590   -2.7720  -21.4330 F   0  0  0  0  0  0  0  0  0  0  0  0
  -13.4600   -1.2560  -23.1830 C   0  0  0  0  0  0  0  0  0  0  0  0
  -11.1650   -0.8510  -23.8460 C   0  0  0  0  0  0  0  0  0  0  0  0
  -12.5170   -0.6190  -23.9540 C   0  0  0  0  0  0  0  0  0  0  0  0
  -12.9460    0.2660  -24.8950 F   0  0  0  0  0  0  0  0  0  0  0  0
   -7.4990   -1.6160  -21.1300 N   0  0  0  0  0  0  0  0  0  0  0  0
   -6.7540   -1.0530  -20.0810 C   0  0  0  0  0  0  0  0  0  0  0  0
   -5.6300   -0.2380  -20.4090 C   0  0  0  0  0  0  0  0  0  0  0  0
   -5.1740   -0.0180  -21.7360 C   0  0  0  0  0  0  0  0  0  0  0  0
   -4.1220    0.8170  -21.9870 C   0  0  0  0  0  0  0  0  0  0  0  0
   -3.4700    1.4670  -20.9480 C   0  0  0  0  0  0  0  0  0  0  0  0
   -3.8650    1.2790  -19.6530 C   0  0  0  0  0  0  0  0  0  0  0  0
   -4.9500    0.4230  -19.3470 C   0  0  0  0  0  0  0  0  0  0  0  0
   -5.4250    0.2130  -18.0290 C   0  0  0  0  0  0  0  0  0  0  0  0
   -6.4660   -0.5510  -17.7250 N   0  0  0  0  0  0  0  0  0  0  0  0
   -7.1010   -1.1640  -18.7340 C   0  0  0  0  0  0  0  0  0  0  0  0
  2  1  2  0
  3  2  1  0
  4  3  1  0
  5  4  2  0
  6  5  1  0
  7  6  1  0
  8  6  2  0
  9  4  1  0
 10  9  2  0
 10  8  1  0
 11 10  1  0
 12  2  1  0
 13 12  1  0
 14 13  1  0
 15 14  2  0
 16 15  1  0
 17 16  2  0
 18 17  1  0
 19 14  1  0
 19 18  2  0
 20 19  1  0
 21 20  2  0
 22 21  1  0
 22 13  2  0
M  END
$$$$

     RDKit          3D

 23 25  0  0  0  0  0  0  0  0999 V2000
  -13.6190   -3.1580  -21.4930 Cl  0  0  0  0  0  0  0  0  0  0  0  0
  -12.4680   -2.3430  -22.5120 C   0  0  0  0  0  0  0  0  0  0  0  0
  -12.9070   -1.3770  -23.3950 C   0  0  0  0  0  0  0  0  0  0  0  0
  -11.9740   -0.7300  -24.1910 C   0  0  0  0  0  0  0  0  0  0  0  0
  -10.6270   -1.0410  -24.0790 C   0  0  0  0  0  0  0  0  0  0  0  0
  -11.1330   -2.6670  -22.3970 C   0  0  0  0  0  0  0  0  0  0  0  0
  -10.1910   -1.9930  -23.1660 C   0  0  0  0  0  0  0  0  0  0  0  0
   -8.7180   -2.1910  -22.8970 C   0  0  0  0  0  0  0  0  0  0  0  0
   -8.3030   -1.3930  -21.6770 C   0  0  0  0  0  0  0  0  0  0  0  0
   -9.0920   -0.6750  -21.0740 O   0  0  0  0  0  0  0  0  0  0  0  0
   -6.9910   -1.4320  -21.4000 N   0  0  0  0  0  0  0  0  0  0  0  0
   -6.3150   -1.0470  -20.2280 C   0  0  0  0  0  0  0  0  0  0  0  0
   -6.8580   -1.0660  -18.9470 C   0  0  0  0  0  0  0  0  0  0  0  0
   -6.3250   -0.4670  -17.8750 N   0  0  0  0  0  0  0  0  0  0  0  0
   -5.1970    0.2120  -18.0500 C   0  0  0  0  0  0  0  0  0  0  0  0
   -5.1040   -0.3150  -20.4170 C   0  0  0  0  0  0  0  0  0  0  0  0
   -4.5390    0.3480  -19.2940 C   0  0  0  0  0  0  0  0  0  0  0  0
   -3.3940    1.1580  -19.4830 C   0  0  0  0  0  0  0  0  0  0  0  0
   -2.8310    1.2910  -20.7170 C   0  0  0  0  0  0  0  0  0  0  0  0
   -4.5000   -0.1420  -21.6830 C   0  0  0  0  0  0  0  0  0  0  0  0
   -3.3850    0.6440  -21.8140 C   0  0  0  0  0  0  0  0  0  0  0  0
   -2.7160    0.8440  -22.9940 O   0  0  0  0  0  0  0  0  0  0  0  0
   -3.2080    0.1990  -24.1710 C   0  0  0  0  0  0  0  0  0  0  0  0
  2  1  1  0
  3  2  2  0
  4  3  1  0
  5  4  2  0
  6  2  1  0
  7  6  2  0
  7  5  1  0
  8  7  1  0
  9  8  1  0
 10  9  2  0
 11  9  1  0
 12 11  1  0
 13 12  2  0
 14 13  1  0
 15 14  2  0
 16 12  1  0
 17 16  2  0
 17 15  1  0
 18 17  1  0
 19 18  2  0
 20 16  1  0
 21 20  2  0
 21 19  1  0
 22 21  1  0
 23 22  1  0
M  END
$$$$

     RDKit          3D

 21 23  0  0  0  0  0  0  0  0999 V2000
  -10.6110   -2.1310  -23.1240 C   0  0  2  0  0  0  0  0  0  0  0  0
   -4.3540    0.5940  -19.1410 C   0  0  0  0  0  0  0  0  0  0  0  0
  -11.9270   -2.8610  -22.8630 C   0  0  0  0  0  0  0  0  0  0  0  0
  -13.1070   -2.2220  -23.5890 C   0  0  0  0  0  0  0  0  0  0  0  0
   -6.0180   -0.8510  -19.9640 C   0  0  0  0  0  0  0  0  0  0  0  0
  -12.8370   -2.1280  -25.0770 C   0  0  0  0  0  0  0  0  0  0  0  0
  -11.5950   -1.2970  -25.3180 C   0  0  0  0  0  0  0  0  0  0  0  0
  -10.3890   -1.9200  -24.6210 C   0  0  0  0  0  0  0  0  0  0  0  0
   -7.8590   -1.2230  -21.6360 C   0  0  0  0  0  0  0  0  0  0  0  0
   -6.5240   -0.9170  -18.6690 C   0  0  0  0  0  0  0  0  0  0  0  0
   -4.8960    0.4930  -17.8820 C   0  0  0  0  0  0  0  0  0  0  0  0
   -7.0220   -3.1530  -22.5700 N   0  0  0  0  0  0  0  0  0  0  0  0
   -6.6590   -1.5780  -21.0270 N   0  0  0  0  0  0  0  0  0  0  0  0
   -9.4430   -2.9030  -22.5140 C   0  0  0  0  0  0  0  0  0  0  0  0
   -5.9670   -0.2620  -17.6500 N   0  0  0  0  0  0  0  0  0  0  0  0
   -6.1820   -2.7860  -21.5970 C   0  0  0  0  0  0  0  0  0  0  0  0
   -4.9050   -0.0680  -20.2060 C   0  0  0  0  0  0  0  0  0  0  0  0
   -8.1130   -2.2050  -22.7670 C   0  0  0  0  0  0  0  0  0  0  0  0
   -3.2570    1.3800  -19.3360 F   0  0  0  0  0  0  0  0  0  0  0  0
   -5.1820   -3.3740  -21.2530 O   0  0  0  0  0  0  0  0  0  0  0  0
   -8.5530   -0.2800  -21.3420 O   0  0  0  0  0  0  0  0  0  0  0  0
  3  1  1  0
  4  3  1  0
  6  4  1  0
  7  6  1  0
  8  7  1  0
  8  1  1  0
 10  5  1  0
 11  2  2  0
 13  9  1  0
 13  5  1  0
  1 14  1  6
 15 10  2  0
 15 11  1  0
 16 12  1  0
 16 13  1  0
 17  5  2  0
 17  2  1  0
 18 14  1  0
 18 12  1  0
 18  9  2  0
 19  2  1  0
 20 16  2  0
 21  9  1  0
M  CHG  1  21  -1
M  END
$$$$

     RDKit          3D

  7  7  0  0  0  0  0  0  0  0999 V2000
   -3.4980    1.1330  -19.7810 N   0  0  0  0  0  0  0  0  0  0  0  0
   -4.4490    0.2740  -19.3830 C   0  0  0  0  0  0  0  0  0  0  0  0
   -4.8450   -0.8280  -20.1830 C   0  0  0  0  0  0  0  0  0  0  0  0
   -6.3010   -1.5010  -18.5290 C   0  0  0  0  0  0  0  0  0  0  0  0
   -5.0890    0.3950  -18.1200 C   0  0  0  0  0  0  0  0  0  0  0  0
   -5.7540   -1.7240  -19.7710 N   0  0  0  0  0  0  0  0  0  0  0  0
   -6.0120   -0.4810  -17.6990 N   0  0  0  0  0  0  0  0  0  0  0  0
  2  1  1  0
  3  2  2  0
  5  2  1  0
  6  4  2  0
  6  3  1  0
  7  4  1  0
  7  5  2  0
M  END
$$$$

     RDKit          3D

 17 18  0  0  0  0  0  0  0  0999 V2000
   -8.9710   -0.0770  -21.3340 O   0  0  0  0  0  0  0  0  0  0  0  0
   -8.4120   -1.0710  -21.7810 C   0  0  0  0  0  0  0  0  0  0  0  0
   -6.9580   -1.2890  -21.5970 C   0  0  0  0  0  0  0  0  0  0  0  0
   -6.3470   -0.7890  -20.3370 C   0  0  0  0  0  0  0  0  0  0  0  0
   -6.9350   -1.0220  -19.0970 C   0  0  0  0  0  0  0  0  0  0  0  0
   -6.4450   -0.5520  -17.9470 N   0  0  0  0  0  0  0  0  0  0  0  0
   -5.3270    0.1800  -18.0040 C   0  0  0  0  0  0  0  0  0  0  0  0
   -4.6640    0.4630  -19.1810 C   0  0  0  0  0  0  0  0  0  0  0  0
   -5.1830   -0.0320  -20.3600 C   0  0  0  0  0  0  0  0  0  0  0  0
   -6.2330   -1.8680  -22.5460 C   0  0  0  0  0  0  0  0  0  0  0  0
   -9.0630   -2.0180  -22.4720 N   0  0  0  0  0  0  0  0  0  0  0  0
  -10.4010   -1.9370  -22.9040 C   0  0  0  0  0  0  0  0  0  0  0  0
  -11.3600   -2.8470  -22.4900 C   0  0  0  0  0  0  0  0  0  0  0  0
  -12.7020   -2.5680  -22.6800 C   0  0  0  0  0  0  0  0  0  0  0  0
  -13.0910   -1.4000  -23.3020 C   0  0  0  0  0  0  0  0  0  0  0  0
  -12.1420   -0.5210  -23.7630 C   0  0  0  0  0  0  0  0  0  0  0  0
  -10.7950   -0.7840  -23.5750 C   0  0  0  0  0  0  0  0  0  0  0  0
  2  1  2  0
  3  2  1  0
  4  3  1  0
  5  4  2  0
  6  5  1  0
  7  6  2  0
  8  7  1  0
  9  4  1  0
  9  8  2  0
 10  3  2  0
 11  2  1  0
 12 11  1  0
 13 12  2  0
 14 13  1  0
 15 14  2  0
 16 15  1  0
 17 16  2  0
 17 12  1  0
M  END
$$$$

     RDKit          3D

 26 28  0  0  0  0  0  0  0  0999 V2000
   -7.9720   -1.2540  -22.2060 N   0  0  0  0  0  0  0  0  0  0  0  0
   -4.4020   -1.0670  -21.7560 C   0  0  0  0  0  0  0  0  0  0  0  0
   -8.1030   -1.1830  -24.6710 C   0  0  0  0  0  0  0  0  0  0  0  0
  -10.7890   -1.6260  -22.8050 C   0  0  0  0  0  0  0  0  0  0  0  0
   -7.8950    0.5700  -20.8950 O   0  0  0  0  0  0  0  0  0  0  0  0
   -3.2100    1.2400  -20.7170 C   0  0  0  0  0  0  0  0  0  0  0  0
   -8.5600   -0.5740  -23.3560 C   0  0  1  0  0  0  0  0  0  0  0  0
   -5.7840    0.0290  -18.4570 C   0  0  0  0  0  0  0  0  0  0  0  0
  -12.8580   -0.4020  -23.0510 C   0  0  0  0  0  0  0  0  0  0  0  0
   -5.7780   -1.0970  -19.4860 C   0  0  1  0  0  0  0  0  0  0  0  0
   -7.1860   -1.5050  -19.9370 C   0  0  0  0  0  0  0  0  0  0  0  0
   -3.3970   -0.4000  -22.4170 C   0  0  0  0  0  0  0  0  0  0  0  0
  -10.0730   -0.5310  -23.2830 C   0  0  0  0  0  0  0  0  0  0  0  0
  -12.1660   -1.5390  -22.6910 C   0  0  0  0  0  0  0  0  0  0  0  0
   -2.7870    0.7300  -21.9320 C   0  0  0  0  0  0  0  0  0  0  0  0
   -2.9760   -0.9010  -23.6090 F   0  0  0  0  0  0  0  0  0  0  0  0
   -4.8140   -0.5720  -20.5200 C   0  0  0  0  0  0  0  0  0  0  0  0
  -10.7630    0.6190  -23.6450 C   0  0  0  0  0  0  0  0  0  0  0  0
   -6.0670   -0.0220  -25.0580 C   0  0  0  0  0  0  0  0  0  0  0  0
   -4.8360    0.9290  -18.8150 N   0  0  0  0  0  0  0  0  0  0  0  0
   -6.6900   -1.2610  -24.7360 O   0  0  0  0  0  0  0  0  0  0  0  0
   -6.5470    0.1280  -17.5020 O   0  0  0  0  0  0  0  0  0  0  0  0
   -4.2270    0.5880  -20.0220 C   0  0  0  0  0  0  0  0  0  0  0  0
   -7.7080   -0.6330  -21.0540 C   0  0  0  0  0  0  0  0  0  0  0  0
  -13.1270   -3.0170  -21.9820 Br  0  0  0  0  0  0  0  0  0  0  0  0
  -12.1410    0.6870  -23.5250 C   0  0  0  0  0  0  0  0  0  0  0  0
  7  3  1  6
  7  1  1  0
 10  8  1  0
 10 11  1  6
 12  2  2  0
 13  7  1  0
 13  4  2  0
 14  9  2  0
 14  4  1  0
 15 12  1  0
 15  6  2  0
 16 12  1  0
 17 10  1  0
 17  2  1  0
 18 13  1  0
 20  8  1  0
 21 19  1  0
 21  3  1  0
 22  8  2  0
 23 20  1  0
 23 17  2  0
 23  6  1  0
 24  1  1  0
 24 11  1  0
 24  5  2  0
 25 14  1  0
 26  9  1  0
 26 18  2  0
M  END
$$$$

     RDKit          3D

 24 27  0  0  0  0  0  0  0  0999 V2000
   -8.9790    0.0100  -21.3030 O   0  0  0  0  0  0  0  0  0  0  0  0
   -8.4560   -1.0550  -21.6390 C   0  0  0  0  0  0  0  0  0  0  0  0
   -9.0030   -1.9010  -22.7910 C   0  0  2  0  0  0  0  0  0  0  0  0
   -8.1860   -1.7050  -24.0740 C   0  0  0  0  0  0  0  0  0  0  0  0
   -8.2500   -0.2610  -24.5460 C   0  0  0  0  0  0  0  0  0  0  0  0
   -9.9220    0.2470  -25.0040 S   0  0  0  0  0  0  0  0  0  0  0  0
  -10.4800   -1.6330  -23.0070 C   0  0  0  0  0  0  0  0  0  0  0  0
  -10.9470   -0.6590  -23.8990 C   0  0  0  0  0  0  0  0  0  0  0  0
  -12.3120   -0.3860  -24.0030 C   0  0  0  0  0  0  0  0  0  0  0  0
  -13.2200   -1.0860  -23.2290 C   0  0  0  0  0  0  0  0  0  0  0  0
  -11.4130   -2.3450  -22.2570 C   0  0  0  0  0  0  0  0  0  0  0  0
  -12.7570   -2.0510  -22.3640 C   0  0  0  0  0  0  0  0  0  0  0  0
  -13.8840   -2.8580  -21.3070 Cl  0  0  0  0  0  0  0  0  0  0  0  0
   -7.3650   -1.5780  -21.0250 N   0  0  0  0  0  0  0  0  0  0  0  0
   -6.6230   -1.0320  -19.9540 C   0  0  0  0  0  0  0  0  0  0  0  0
   -5.5160   -0.1760  -20.2490 C   0  0  0  0  0  0  0  0  0  0  0  0
   -5.0480    0.0810  -21.5630 C   0  0  0  0  0  0  0  0  0  0  0  0
   -4.0030    0.9370  -21.7820 C   0  0  0  0  0  0  0  0  0  0  0  0
   -3.3760    1.5720  -20.7210 C   0  0  0  0  0  0  0  0  0  0  0  0
   -3.7870    1.3550  -19.4380 C   0  0  0  0  0  0  0  0  0  0  0  0
   -4.8640    0.4770  -19.1660 C   0  0  0  0  0  0  0  0  0  0  0  0
   -5.3450    0.2260  -17.8590 C   0  0  0  0  0  0  0  0  0  0  0  0
   -6.3600   -0.5780  -17.5820 N   0  0  0  0  0  0  0  0  0  0  0  0
   -6.9700   -1.1850  -18.6090 C   0  0  0  0  0  0  0  0  0  0  0  0
  2  1  2  0
  3  2  1  1
  4  3  1  0
  5  4  1  0
  6  5  1  0
  7  3  1  0
  8  7  2  0
  8  6  1  0
  9  8  1  0
 10  9  2  0
 11  7  1  0
 12 11  2  0
 12 10  1  0
 13 12  1  0
 14  2  1  0
 15 14  1  0
 16 15  1  0
 17 16  2  0
 18 17  1  0
 19 18  2  0
 20 19  1  0
 21 16  1  0
 21 20  2  0
 22 21  1  0
 23 22  2  0
 24 23  1  0
 24 15  2  0
M  END
$$$$

     RDKit          3D

 16 16  0  0  0  0  0  0  0  0999 V2000
   -6.6760   -4.5190  -26.7660 N   0  0  0  0  0  0  0  0  0  0  0  0
   -8.6020   -5.9880  -27.3280 C   0  0  0  0  0  0  0  0  0  0  0  0
   -4.6900   -4.3180  -25.6970 O   0  0  0  0  0  0  0  0  0  0  0  0
   -7.1640   -5.6190  -27.6370 C   0  0  2  0  0  0  0  0  0  0  0  0
   -6.1850   -5.3420  -20.3350 C   0  0  0  0  0  0  0  0  0  0  0  0
   -6.7800   -4.2130  -19.5360 C   0  0  0  0  0  0  0  0  0  0  0  0
   -6.2400   -6.8190  -27.6340 C   0  0  0  0  0  0  0  0  0  0  0  0
   -7.2300   -3.1950  -27.0630 C   0  0  0  0  0  0  0  0  0  0  0  0
   -5.8620   -4.7080  -25.7070 C   0  0  0  0  0  0  0  0  0  0  0  0
   -6.5120   -5.2780  -24.4580 C   0  0  1  0  0  0  0  0  0  0  0  0
   -5.5520   -6.1730  -23.6710 C   0  0  0  0  0  0  0  0  0  0  0  0
   -6.2150   -6.6700  -22.4110 C   0  0  0  0  0  0  0  0  0  0  0  0
   -7.6080   -4.6630  -22.2790 C   0  0  0  0  0  0  0  0  0  0  0  0
   -7.0040   -4.1370  -23.5590 C   0  0  0  0  0  0  0  0  0  0  0  0
   -6.6540   -5.5380  -21.5890 N   0  0  0  0  0  0  0  0  0  0  0  0
   -5.3110   -6.0440  -19.8450 O   0  0  0  0  0  0  0  0  0  0  0  0
  4  2  1  1
  4  1  1  0
  6  5  1  0
  7  4  1  0
  8  1  1  0
  9  1  1  0
  9  3  2  0
 10  9  1  6
 11 10  1  0
 12 11  1  0
 14 13  1  0
 14 10  1  0
 15 12  1  0
 15 13  1  0
 15  5  1  0
 16  5  2  0
M  END
$$$$

     RDKit          3D

 18 19  0  0  0  0  0  0  0  0999 V2000
   -8.9570   -0.4580  -21.2780 O   0  0  0  0  0  0  0  0  0  0  0  0
   -8.3230   -1.4660  -21.5840 C   0  0  0  0  0  0  0  0  0  0  0  0
   -7.0910   -1.7540  -21.1190 N   0  0  0  0  0  0  0  0  0  0  0  0
   -6.4220   -1.0550  -20.0940 C   0  0  0  0  0  0  0  0  0  0  0  0
   -6.8780   -1.0920  -18.7760 C   0  0  0  0  0  0  0  0  0  0  0  0
   -6.2800   -0.4400  -17.7750 N   0  0  0  0  0  0  0  0  0  0  0  0
   -5.1860    0.2720  -18.0700 C   0  0  0  0  0  0  0  0  0  0  0  0
   -4.6670    0.3790  -19.3450 C   0  0  0  0  0  0  0  0  0  0  0  0
   -5.2830   -0.2870  -20.3960 C   0  0  0  0  0  0  0  0  0  0  0  0
   -4.7700   -0.1370  -21.8050 C   0  0  0  0  0  0  0  0  0  0  0  0
   -8.8780   -2.5000  -22.5420 C   0  0  0  0  0  0  0  0  0  0  0  0
  -10.2360   -2.0860  -23.0550 C   0  0  0  0  0  0  0  0  0  0  0  0
  -10.3420   -1.3220  -24.2100 C   0  0  0  0  0  0  0  0  0  0  0  0
  -11.5830   -0.9120  -24.6680 C   0  0  0  0  0  0  0  0  0  0  0  0
  -11.6510   -0.2050  -25.8290 O   0  0  0  0  0  0  0  0  0  0  0  0
  -12.7350   -1.2390  -23.9660 C   0  0  0  0  0  0  0  0  0  0  0  0
  -12.6320   -2.0070  -22.8180 C   0  0  0  0  0  0  0  0  0  0  0  0
  -11.3920   -2.4330  -22.3720 C   0  0  0  0  0  0  0  0  0  0  0  0
  2  1  2  0
  3  2  1  0
  4  3  1  0
  5  4  2  0
  6  5  1  0
  7  6  2  0
  8  7  1  0
  9  4  1  0
  9  8  2  0
 10  9  1  0
 11  2  1  0
 12 11  1  0
 13 12  2  0
 14 13  1  0
 15 14  1  0
 16 14  2  0
 17 16  1  0
 18 17  2  0
 18 12  1  0
M  END
$$$$

     RDKit          3D

 30 33  0  0  0  0  0  0  0  0999 V2000
  -10.4090    0.7460  -24.3840 C   0  0  0  0  0  0  0  0  0  0  0  0
   -9.1060    0.3720  -24.6030 N   0  0  2  0  0  0  0  0  0  0  0  0
   -8.2530    1.2050  -25.4320 C   0  0  0  0  0  0  0  0  0  0  0  0
   -7.5940    2.4020  -24.7690 C   0  0  0  0  0  0  0  0  0  0  0  0
   -6.8920    3.1690  -25.4260 O   0  0  0  0  0  0  0  0  0  0  0  0
   -7.7680    2.5440  -23.4590 N   0  0  0  0  0  0  0  0  0  0  0  0
   -6.9500    3.4390  -22.6600 C   0  0  0  0  0  0  0  0  0  0  0  0
  -11.2430   -0.2010  -23.6310 C   0  0  0  0  0  0  0  0  0  0  0  0
  -12.5990    0.0750  -23.4600 C   0  0  0  0  0  0  0  0  0  0  0  0
  -13.4100   -0.8050  -22.7710 C   0  0  0  0  0  0  0  0  0  0  0  0
  -12.8610   -1.9590  -22.2550 C   0  0  0  0  0  0  0  0  0  0  0  0
  -13.8990   -3.1110  -21.4660 Cl  0  0  0  0  0  0  0  0  0  0  0  0
  -11.5120   -2.2400  -22.3750 C   0  0  0  0  0  0  0  0  0  0  0  0
  -10.6790   -1.3440  -23.0500 C   0  0  0  0  0  0  0  0  0  0  0  0
   -9.1830   -1.5820  -23.1140 C   0  0  1  0  0  0  0  0  0  0  0  0
   -8.6310   -1.0020  -24.4150 C   0  0  0  0  0  0  0  0  0  0  0  0
   -8.5330   -0.8320  -21.9470 C   0  0  0  0  0  0  0  0  0  0  0  0
   -9.0500    0.1620  -21.4380 O   0  0  0  0  0  0  0  0  0  0  0  0
   -7.3400   -1.3330  -21.5360 N   0  0  0  0  0  0  0  0  0  0  0  0
   -6.5460   -0.8780  -20.4530 C   0  0  0  0  0  0  0  0  0  0  0  0
   -5.3590   -0.0930  -20.6490 C   0  0  0  0  0  0  0  0  0  0  0  0
   -4.7300    0.1760  -21.9180 C   0  0  0  0  0  0  0  0  0  0  0  0
   -5.1590   -0.4240  -23.2320 C   0  0  0  0  0  0  0  0  0  0  0  0
   -3.6230    0.9980  -21.9510 C   0  0  0  0  0  0  0  0  0  0  0  0
   -3.0800    1.5640  -20.8120 C   0  0  0  0  0  0  0  0  0  0  0  0
   -3.6260    1.3110  -19.5930 C   0  0  0  0  0  0  0  0  0  0  0  0
   -4.7630    0.4760  -19.4760 C   0  0  0  0  0  0  0  0  0  0  0  0
   -5.3520    0.1800  -18.2190 C   0  0  0  0  0  0  0  0  0  0  0  0
   -6.4260   -0.5720  -18.0520 N   0  0  0  0  0  0  0  0  0  0  0  0
   -6.9990   -1.0790  -19.1500 C   0  0  0  0  0  0  0  0  0  0  0  0
  2  1  1  0
  2  3  1  6
  4  3  1  0
  5  4  2  0
  6  4  1  0
  7  6  1  0
  8  1  1  0
  9  8  2  0
 10  9  1  0
 11 10  2  0
 12 11  1  0
 13 11  1  0
 14 13  2  0
 14  8  1  0
 15 14  1  0
 16 15  1  0
 16  2  1  0
 15 17  1  1
 18 17  2  0
 19 17  1  0
 20 19  1  0
 21 20  1  0
 22 21  2  0
 23 22  1  0
 24 22  1  0
 25 24  2  0
 26 25  1  0
 27 26  2  0
 27 21  1  0
 28 27  1  0
 29 28  2  0
 30 29  1  0
 30 20  2  0
M  CHG  1   2   1
M  END
$$$$

     RDKit          3D

 21 24  0  0  0  0  0  0  0  0999 V2000
   -8.4910    0.1550  -21.4560 O   0  0  0  0  0  0  0  0  0  0  0  0
   -8.0530   -0.9790  -21.6150 C   0  0  0  0  0  0  0  0  0  0  0  0
   -8.4490   -1.8540  -22.8070 C   0  0  2  0  0  0  0  0  0  0  0  0
   -7.9620   -1.1980  -24.0950 C   0  0  0  0  0  0  0  0  0  0  0  0
   -9.1220   -0.5140  -24.6450 O   0  0  0  0  0  0  0  0  0  0  0  0
   -9.9490   -1.8380  -23.0070 C   0  0  0  0  0  0  0  0  0  0  0  0
  -10.2620   -0.9380  -24.0030 C   0  0  0  0  0  0  0  0  0  0  0  0
  -11.5710   -0.6130  -24.3180 C   0  0  0  0  0  0  0  0  0  0  0  0
  -12.5900   -1.2400  -23.6240 C   0  0  0  0  0  0  0  0  0  0  0  0
  -10.9730   -2.4870  -22.3310 C   0  0  0  0  0  0  0  0  0  0  0  0
  -12.2770   -2.1880  -22.6630 C   0  0  0  0  0  0  0  0  0  0  0  0
  -13.5550   -3.0990  -21.9280 Cl  0  0  0  0  0  0  0  0  0  0  0  0
   -7.1670   -1.5510  -20.7590 N   0  0  0  0  0  0  0  0  0  0  0  0
   -6.6810   -0.9910  -19.6120 C   0  0  0  0  0  0  0  0  0  0  0  0
   -5.4640   -0.3550  -19.5660 N   0  0  0  0  0  0  0  0  0  0  0  0
   -5.3670    0.0810  -18.2700 C   0  0  0  0  0  0  0  0  0  0  0  0
   -6.4200   -0.2480  -17.5820 N   0  0  0  0  0  0  0  0  0  0  0  0
   -7.2700   -0.9390  -18.4300 N   0  0  0  0  0  0  0  0  0  0  0  0
   -4.5110   -0.1380  -20.6780 C   0  0  1  0  0  0  0  0  0  0  0  0
   -4.8770    0.8360  -21.7450 C   0  0  0  0  0  0  0  0  0  0  0  0
   -3.8010    1.1700  -20.7580 C   0  0  0  0  0  0  0  0  0  0  0  0
  2  1  2  0
  3  2  1  1
  4  3  1  0
  5  4  1  0
  6  3  1  0
  7  6  2  0
  7  5  1  0
  8  7  1  0
  9  8  2  0
 10  6  1  0
 11 10  2  0
 11  9  1  0
 12 11  1  0
 13  2  1  0
 14 13  1  0
 15 14  1  0
 16 15  1  0
 17 16  2  0
 18 17  1  0
 18 14  2  0
 19 15  1  1
 20 19  1  0
 21 20  1  0
 21 19  1  0
M  END
$$$$

     RDKit          3D

 31 34  0  0  0  0  0  0  0  0999 V2000
  -13.9240   -2.8400  -21.2240 Cl  0  0  0  0  0  0  0  0  0  0  0  0
  -12.9810   -1.9690  -22.4040 C   0  0  0  0  0  0  0  0  0  0  0  0
  -13.6240   -1.1220  -23.2900 C   0  0  0  0  0  0  0  0  0  0  0  0
  -12.8730   -0.3900  -24.1930 C   0  0  0  0  0  0  0  0  0  0  0  0
  -11.6030   -2.1070  -22.3890 C   0  0  0  0  0  0  0  0  0  0  0  0
  -10.8350   -1.3570  -23.2770 C   0  0  0  0  0  0  0  0  0  0  0  0
  -11.4910   -0.5050  -24.1730 C   0  0  0  0  0  0  0  0  0  0  0  0
  -10.8160    0.2800  -25.0730 O   0  0  0  0  0  0  0  0  0  0  0  0
   -9.5850   -0.3060  -25.5330 C   0  0  0  0  0  0  0  0  0  0  0  0
   -8.6400   -0.6290  -24.3900 C   0  0  0  0  0  0  0  0  0  0  0  0
   -9.3210   -1.4460  -23.2730 C   0  0  2  0  0  0  0  0  0  0  0  0
   -8.8990   -2.8060  -23.1290 O   0  0  0  0  0  0  0  0  0  0  0  0
   -9.0370   -3.6560  -24.2700 C   0  0  0  0  0  0  0  0  0  0  0  0
   -8.7340   -0.8040  -21.9780 C   0  0  0  0  0  0  0  0  0  0  0  0
   -9.2710    0.1680  -21.4610 O   0  0  0  0  0  0  0  0  0  0  0  0
   -7.5920   -1.3640  -21.5040 N   0  0  0  0  0  0  0  0  0  0  0  0
   -6.8720   -0.9380  -20.3640 C   0  0  0  0  0  0  0  0  0  0  0  0
   -7.3150   -1.1300  -19.0540 C   0  0  0  0  0  0  0  0  0  0  0  0
   -6.7280   -0.6240  -17.9600 N   0  0  0  0  0  0  0  0  0  0  0  0
   -5.6330    0.1070  -18.1320 C   0  0  0  0  0  0  0  0  0  0  0  0
   -5.0460    0.3790  -19.3920 C   0  0  0  0  0  0  0  0  0  0  0  0
   -5.6800   -0.1640  -20.5480 C   0  0  0  0  0  0  0  0  0  0  0  0
   -5.0820    0.0780  -21.8160 C   0  0  0  0  0  0  0  0  0  0  0  0
   -3.9250    0.7960  -21.9280 C   0  0  0  0  0  0  0  0  0  0  0  0
   -3.8600    1.1300  -19.5440 C   0  0  0  0  0  0  0  0  0  0  0  0
   -3.3150    1.3050  -20.7880 C   0  0  0  0  0  0  0  0  0  0  0  0
   -1.7540    2.1140  -20.9190 S   0  0  1  0  0  0  0  0  0  0  0  0
   -1.4220    2.6550  -19.6340 O   0  0  0  0  0  0  0  0  0  0  0  0
   -0.8430    1.2140  -21.5550 O   0  0  0  0  0  0  0  0  0  0  0  0
   -1.9380    3.3690  -21.9090 N   0  0  0  0  0  0  0  0  0  0  0  0
   -2.7360    4.5100  -21.4730 C   0  0  0  0  0  0  0  0  0  0  0  0
  2  1  1  0
  3  2  2  0
  4  3  1  0
  5  2  1  0
  6  5  2  0
  7  4  2  0
  7  6  1  0
  8  7  1  0
  9  8  1  0
 10  9  1  0
 11 10  1  0
 11  6  1  0
 11 12  1  6
 13 12  1  0
 14 11  1  0
 15 14  2  0
 16 14  1  0
 17 16  1  0
 18 17  2  0
 19 18  1  0
 20 19  2  0
 21 20  1  0
 22 17  1  0
 22 21  2  0
 23 22  1  0
 24 23  2  0
 25 21  1  0
 26 24  1  0
 26 25  2  0
 27 26  1  0
 28 27  2  0
 29 27  2  0
 27 30  1  6
 31 30  1  0
M  END
$$$$

     RDKit          3D

 33 36  0  0  0  0  0  0  0  0999 V2000
  -13.7250   -3.0390  -21.6080 Cl  0  0  0  0  0  0  0  0  0  0  0  0
  -12.5960   -2.0620  -22.5100 C   0  0  0  0  0  0  0  0  0  0  0  0
  -11.2460   -2.3240  -22.4020 C   0  0  0  0  0  0  0  0  0  0  0  0
  -13.0750   -1.0900  -23.3540 C   0  0  0  0  0  0  0  0  0  0  0  0
  -12.1830   -0.3970  -24.1520 C   0  0  0  0  0  0  0  0  0  0  0  0
  -10.8140   -0.6500  -24.0940 C   0  0  0  0  0  0  0  0  0  0  0  0
   -9.9240    0.0710  -25.0850 C   0  0  0  0  0  0  0  0  0  0  0  0
   -8.4900   -0.1060  -24.8220 N   0  0  0  0  0  0  0  0  0  0  0  0
   -7.3340    0.9060  -25.2700 S   0  0  2  0  0  0  0  0  0  0  0  0
   -7.4750    1.0930  -26.6720 O   0  0  0  0  0  0  0  0  0  0  0  0
   -6.1070    0.4470  -24.7180 O   0  0  0  0  0  0  0  0  0  0  0  0
   -7.7380    2.2690  -24.5470 N   0  0  0  0  0  0  0  0  0  0  0  0
   -7.3460    2.4570  -23.1480 C   0  0  0  0  0  0  0  0  0  0  0  0
   -8.3950    3.4390  -25.1740 C   0  0  0  0  0  0  0  0  0  0  0  0
   -7.4670    4.6150  -25.3720 C   0  0  0  0  0  0  0  0  0  0  0  0
   -6.6450    4.3720  -26.4890 O   0  0  0  0  0  0  0  0  0  0  0  0
   -7.0060    5.1760  -27.5980 C   0  0  0  0  0  0  0  0  0  0  0  0
  -10.3380   -1.6070  -23.1830 C   0  0  0  0  0  0  0  0  0  0  0  0
   -8.8470   -1.8170  -23.0040 C   0  0  1  0  0  0  0  0  0  0  0  0
   -8.0890   -1.4110  -24.2640 C   0  0  0  0  0  0  0  0  0  0  0  0
   -8.3690   -1.0420  -21.7740 C   0  0  0  0  0  0  0  0  0  0  0  0
   -8.9780   -0.0660  -21.3400 O   0  0  0  0  0  0  0  0  0  0  0  0
   -7.2280   -1.5120  -21.2200 N   0  0  0  0  0  0  0  0  0  0  0  0
   -6.5360   -1.0030  -20.1020 C   0  0  0  0  0  0  0  0  0  0  0  0
   -5.4080   -0.1550  -20.3270 C   0  0  0  0  0  0  0  0  0  0  0  0
   -4.9100    0.1720  -21.6150 C   0  0  0  0  0  0  0  0  0  0  0  0
   -3.8400    1.0070  -21.7650 C   0  0  0  0  0  0  0  0  0  0  0  0
   -3.2100    1.5550  -20.6550 C   0  0  0  0  0  0  0  0  0  0  0  0
   -3.6500    1.2710  -19.3940 C   0  0  0  0  0  0  0  0  0  0  0  0
   -4.7570    0.4120  -19.1940 C   0  0  0  0  0  0  0  0  0  0  0  0
   -5.2690    0.0910  -17.9130 C   0  0  0  0  0  0  0  0  0  0  0  0
   -6.3120   -0.7010  -17.7030 N   0  0  0  0  0  0  0  0  0  0  0  0
   -6.9170   -1.2250  -18.7780 C   0  0  0  0  0  0  0  0  0  0  0  0
  2  1  1  0
  3  2  2  0
  4  2  1  0
  5  4  2  0
  6  5  1  0
  7  6  1  0
  8  7  1  0
  9  8  1  0
 10  9  2  0
 11  9  2  0
  9 12  1  1
 13 12  1  0
 14 12  1  0
 15 14  1  0
 16 15  1  0
 17 16  1  0
 18  3  1  0
 18  6  2  0
 19 18  1  0
 20 19  1  0
 20  8  1  0
 19 21  1  1
 22 21  2  0
 23 21  1  0
 24 23  1  0
 25 24  1  0
 26 25  2  0
 27 26  1  0
 28 27  2  0
 29 28  1  0
 30 29  2  0
 30 25  1  0
 31 30  1  0
 32 31  2  0
 33 32  1  0
 33 24  2  0
M  END
$$$$

     RDKit          3D

 24 26  0  0  0  0  0  0  0  0999 V2000
   -6.8360   -4.8680  -21.5240 N   0  0  0  0  0  0  0  0  0  0  0  0
   -9.0170   -5.1740  -26.3230 N   0  0  0  0  0  0  0  0  0  0  0  0
   -6.3450   -4.7590  -20.2630 C   0  0  0  0  0  0  0  0  0  0  0  0
   -7.5430   -3.8050  -22.2560 C   0  0  0  0  0  0  0  0  0  0  0  0
  -12.8240   -3.2360  -24.7110 C   0  0  0  0  0  0  0  0  0  0  0  0
   -5.5130   -5.5490  -19.8500 O   0  0  0  0  0  0  0  0  0  0  0  0
  -12.0220   -4.4240  -27.1120 C   0  0  0  0  0  0  0  0  0  0  0  0
   -6.7090   -6.1460  -22.2430 C   0  0  0  0  0  0  0  0  0  0  0  0
   -9.6150   -4.0360  -26.6870 C   0  0  0  0  0  0  0  0  0  0  0  0
  -11.4380   -3.2870  -25.0420 C   0  0  0  0  0  0  0  0  0  0  0  0
   -7.6470   -5.4980  -26.7020 C   0  0  0  0  0  0  0  0  0  0  0  0
   -6.6290   -4.8460  -25.7710 C   0  0  0  0  0  0  0  0  0  0  0  0
  -12.2790   -2.2190  -22.5880 C   0  0  0  0  0  0  0  0  0  0  0  0
  -13.7640   -3.7900  -25.6080 C   0  0  0  0  0  0  0  0  0  0  0  0
   -6.9720   -3.6620  -23.6620 C   0  0  0  0  0  0  0  0  0  0  0  0
  -13.3610   -4.3700  -26.7700 C   0  0  0  0  0  0  0  0  0  0  0  0
  -13.2130   -2.6820  -23.4690 C   0  0  0  0  0  0  0  0  0  0  0  0
  -10.9330   -2.2660  -22.9000 C   0  0  0  0  0  0  0  0  0  0  0  0
   -6.8930   -3.6850  -19.3750 C   0  0  0  0  0  0  0  0  0  0  0  0
   -7.0020   -4.9600  -24.3550 N   0  0  2  0  0  0  0  0  0  0  0  0
   -9.0410   -3.1600  -27.3280 O   0  0  0  0  0  0  0  0  0  0  0  0
  -11.0550   -3.9030  -26.2790 C   0  0  0  0  0  0  0  0  0  0  0  0
   -6.1520   -5.9100  -23.6350 C   0  0  0  0  0  0  0  0  0  0  0  0
  -10.5120   -2.7740  -24.0960 C   0  0  0  0  0  0  0  0  0  0  0  0
  3  1  1  0
  4  1  1  0
  6  3  2  0
  8  1  1  0
  9  2  1  0
 10  5  1  0
 11  2  1  0
 12 11  1  0
 14  5  2  0
 15  4  1  0
 16 14  1  0
 16  7  2  0
 17 13  2  0
 17  5  1  0
 18 13  1  0
 19  3  1  0
 20 15  1  0
 20 12  1  6
 21  9  2  0
 22 10  2  0
 22  7  1  0
 22  9  1  0
 23  8  1  0
 23 20  1  0
 24 18  2  0
 24 10  1  0
M  CHG  1  20   1
M  END
$$$$

     RDKit          3D

 16 17  0  0  0  0  0  0  0  0999 V2000
   -8.5140   -0.1740  -20.9870 O   0  0  0  0  0  0  0  0  0  0  0  0
   -8.0470   -1.2330  -21.3960 C   0  0  0  0  0  0  0  0  0  0  0  0
   -8.7010   -1.9900  -22.3550 N   0  0  0  0  0  0  0  0  0  0  0  0
   -9.9190   -1.5620  -22.8750 C   0  0  0  0  0  0  0  0  0  0  0  0
  -10.7950   -2.3260  -23.5880 C   0  0  0  0  0  0  0  0  0  0  0  0
  -11.9850   -1.6330  -23.8990 C   0  0  0  0  0  0  0  0  0  0  0  0
  -10.5500    0.0260  -22.6120 S   0  0  0  0  0  0  0  0  0  0  0  0
  -12.0190   -0.3560  -23.4300 C   0  0  0  0  0  0  0  0  0  0  0  0
  -13.1310    0.6380  -23.4920 C   0  0  0  0  0  0  0  0  0  0  0  0
   -6.8550   -1.7310  -20.9640 N   0  0  0  0  0  0  0  0  0  0  0  0
   -6.0110   -1.0700  -20.0490 C   0  0  0  0  0  0  0  0  0  0  0  0
   -6.3640   -0.9730  -18.7030 C   0  0  0  0  0  0  0  0  0  0  0  0
   -5.6880   -0.2290  -17.8190 N   0  0  0  0  0  0  0  0  0  0  0  0
   -4.6300    0.4560  -18.2700 C   0  0  0  0  0  0  0  0  0  0  0  0
   -4.1910    0.4110  -19.5790 C   0  0  0  0  0  0  0  0  0  0  0  0
   -4.8890   -0.3740  -20.4800 C   0  0  0  0  0  0  0  0  0  0  0  0
  2  1  2  0
  3  2  1  0
  4  3  1  0
  5  4  2  0
  6  5  1  0
  7  4  1  0
  8  6  2  0
  8  7  1  0
  9  8  1  0
 10  2  1  0
 11 10  1  0
 12 11  2  0
 13 12  1  0
 14 13  2  0
 15 14  1  0
 16 11  1  0
 16 15  2  0
M  END
$$$$

     RDKit          3D

 21 23  0  0  0  0  0  0  0  0999 V2000
  -13.5710   -3.0980  -21.5020 Cl  0  0  0  0  0  0  0  0  0  0  0  0
  -12.4880   -2.1980  -22.5200 C   0  0  0  0  0  0  0  0  0  0  0  0
  -13.0090   -1.3590  -23.4850 C   0  0  0  0  0  0  0  0  0  0  0  0
  -12.1410   -0.7700  -24.3900 C   0  0  0  0  0  0  0  0  0  0  0  0
  -10.7760   -0.9980  -24.2980 C   0  0  0  0  0  0  0  0  0  0  0  0
  -11.1310   -2.4210  -22.4080 C   0  0  0  0  0  0  0  0  0  0  0  0
  -10.2580   -1.8070  -23.2970 C   0  0  0  0  0  0  0  0  0  0  0  0
   -8.7680   -1.9590  -23.1180 C   0  0  0  0  0  0  0  0  0  0  0  0
   -8.2680   -1.2030  -21.8990 C   0  0  0  0  0  0  0  0  0  0  0  0
   -8.9970   -0.4410  -21.2830 O   0  0  0  0  0  0  0  0  0  0  0  0
   -6.9590   -1.3490  -21.5630 N   0  0  0  0  0  0  0  0  0  0  0  0
   -5.9470   -1.9170  -22.4680 C   0  0  0  0  0  0  0  0  0  0  0  0
   -5.0550   -0.7910  -22.9790 C   0  0  0  0  0  0  0  0  0  0  0  0
   -4.5490    0.1430  -21.8690 C   0  0  0  0  0  0  0  0  0  0  0  0
   -5.1930   -0.0920  -20.5210 C   0  0  0  0  0  0  0  0  0  0  0  0
   -4.5960    0.4040  -19.3570 C   0  0  0  0  0  0  0  0  0  0  0  0
   -3.4090    1.1090  -19.4090 N   0  0  0  0  0  0  0  0  0  0  0  0
   -6.3790   -0.8300  -20.3890 C   0  0  0  0  0  0  0  0  0  0  0  0
   -6.9230   -1.0290  -19.1270 C   0  0  0  0  0  0  0  0  0  0  0  0
   -6.3800   -0.5650  -18.0000 N   0  0  0  0  0  0  0  0  0  0  0  0
   -5.2460    0.1360  -18.1070 C   0  0  0  0  0  0  0  0  0  0  0  0
  2  1  1  0
  3  2  2  0
  4  3  1  0
  5  4  2  0
  6  2  1  0
  7  6  2  0
  7  5  1  0
  8  7  1  0
  9  8  1  0
 10  9  2  0
 11  9  1  0
 12 11  1  0
 13 12  1  0
 14 13  1  0
 15 14  1  0
 16 15  2  0
 17 16  1  0
 18 11  1  0
 18 15  1  0
 19 18  2  0
 20 19  1  0
 21 20  2  0
 21 16  1  0
M  END
$$$$

     RDKit          3D

 34 37  0  0  0  0  0  0  0  0999 V2000
  -13.8620   -2.8260  -21.4710 Cl  0  0  0  0  0  0  0  0  0  0  0  0
  -12.7370   -2.0060  -22.5220 C   0  0  0  0  0  0  0  0  0  0  0  0
  -11.3970   -2.3480  -22.4750 C   0  0  0  0  0  0  0  0  0  0  0  0
  -13.1990   -1.0160  -23.3540 C   0  0  0  0  0  0  0  0  0  0  0  0
  -12.3030   -0.3660  -24.1790 C   0  0  0  0  0  0  0  0  0  0  0  0
  -10.9440   -0.6660  -24.1530 C   0  0  0  0  0  0  0  0  0  0  0  0
  -10.0430    0.0910  -25.1010 C   0  0  0  0  0  0  0  0  0  0  0  0
   -8.6130   -0.1580  -24.8710 N   0  0  0  0  0  0  0  0  0  0  0  0
   -7.4440    0.8550  -25.2750 S   0  0  1  0  0  0  0  0  0  0  0  0
   -6.2240    0.3600  -24.7370 O   0  0  0  0  0  0  0  0  0  0  0  0
   -7.5790    1.0980  -26.6690 O   0  0  0  0  0  0  0  0  0  0  0  0
   -7.8610    2.1900  -24.4880 N   0  0  0  0  0  0  0  0  0  0  0  0
   -8.4190    3.2970  -25.2710 C   0  0  0  0  0  0  0  0  0  0  0  0
   -7.2580    2.4590  -23.1660 C   0  0  0  0  0  0  0  0  0  0  0  0
   -6.1310    3.4640  -23.2460 C   0  0  0  0  0  0  0  0  0  0  0  0
   -5.2880    3.4890  -24.1030 O   0  0  0  0  0  0  0  0  0  0  0  0
   -6.2280    4.3640  -22.2630 O   0  0  0  0  0  0  0  0  0  0  0  0
   -5.4830    5.5940  -22.4270 C   0  0  0  0  0  0  0  0  0  0  0  0
  -10.4810   -1.6570  -23.2700 C   0  0  0  0  0  0  0  0  0  0  0  0
   -8.9910   -1.9020  -23.1240 C   0  0  1  0  0  0  0  0  0  0  0  0
   -8.2570   -1.5130  -24.4070 C   0  0  0  0  0  0  0  0  0  0  0  0
   -8.4430   -1.0930  -21.9420 C   0  0  0  0  0  0  0  0  0  0  0  0
   -8.9960   -0.0670  -21.5400 O   0  0  0  0  0  0  0  0  0  0  0  0
   -7.3040   -1.5940  -21.3880 N   0  0  0  0  0  0  0  0  0  0  0  0
   -6.5750   -1.0860  -20.2780 C   0  0  0  0  0  0  0  0  0  0  0  0
   -5.4330   -0.2550  -20.5160 C   0  0  0  0  0  0  0  0  0  0  0  0
   -4.8650   -0.0430  -21.8000 C   0  0  0  0  0  0  0  0  0  0  0  0
   -3.7630    0.7480  -21.9590 C   0  0  0  0  0  0  0  0  0  0  0  0
   -3.1790    1.3800  -20.8680 C   0  0  0  0  0  0  0  0  0  0  0  0
   -3.6890    1.2090  -19.6110 C   0  0  0  0  0  0  0  0  0  0  0  0
   -4.8150    0.3800  -19.3970 C   0  0  0  0  0  0  0  0  0  0  0  0
   -5.3460    0.1140  -18.1110 C   0  0  0  0  0  0  0  0  0  0  0  0
   -6.3750   -0.6890  -17.8830 N   0  0  0  0  0  0  0  0  0  0  0  0
   -6.9590   -1.2650  -18.9450 C   0  0  0  0  0  0  0  0  0  0  0  0
  2  1  1  0
  3  2  2  0
  4  2  1  0
  5  4  2  0
  6  5  1  0
  7  6  1  0
  8  7  1  0
  9  8  1  0
 10  9  2  0
 11  9  2  0
  9 12  1  1
 13 12  1  0
 14 12  1  0
 15 14  1  0
 16 15  2  0
 17 15  1  0
 18 17  1  0
 19  6  2  0
 19  3  1  0
 20 19  1  0
 21 20  1  0
 21  8  1  0
 20 22  1  1
 23 22  2  0
 24 22  1  0
 25 24  1  0
 26 25  1  0
 27 26  2  0
 28 27  1  0
 29 28  2  0
 30 29  1  0
 31 30  2  0
 31 26  1  0
 32 31  1  0
 33 32  2  0
 34 33  1  0
 34 25  2  0
M  END
$$$$

     RDKit          3D

 24 27  0  0  0  0  0  0  0  0999 V2000
  -13.8770   -2.7550  -21.3720 Cl  0  0  0  0  0  0  0  0  0  0  0  0
  -12.8660   -1.9200  -22.5190 C   0  0  0  0  0  0  0  0  0  0  0  0
  -13.4570   -1.1140  -23.4760 C   0  0  0  0  0  0  0  0  0  0  0  0
  -12.6420   -0.4520  -24.3830 C   0  0  0  0  0  0  0  0  0  0  0  0
  -11.2610   -0.5760  -24.3010 C   0  0  0  0  0  0  0  0  0  0  0  0
  -11.4910   -2.0610  -22.4300 C   0  0  0  0  0  0  0  0  0  0  0  0
  -10.6730   -1.3630  -23.3110 C   0  0  0  0  0  0  0  0  0  0  0  0
   -9.1530   -1.3960  -23.1190 C   0  0  1  0  0  0  0  0  0  0  0  0
   -8.4590   -0.7970  -24.2100 O   0  0  0  0  0  0  0  0  0  0  0  0
   -8.7130   -0.6340  -21.8550 C   0  0  0  0  0  0  0  0  0  0  0  0
   -9.2090    0.3930  -21.4320 O   0  0  0  0  0  0  0  0  0  0  0  0
   -7.6240   -1.2690  -21.3350 N   0  0  0  0  0  0  0  0  0  0  0  0
   -7.3430   -2.5520  -22.0010 C   0  0  0  0  0  0  0  0  0  0  0  0
   -8.5910   -2.8030  -22.8440 C   0  0  0  0  0  0  0  0  0  0  0  0
   -6.7950   -0.7590  -20.2840 C   0  0  0  0  0  0  0  0  0  0  0  0
   -5.7120    0.1230  -20.5870 C   0  0  0  0  0  0  0  0  0  0  0  0
   -5.3610    0.5320  -21.9030 C   0  0  0  0  0  0  0  0  0  0  0  0
   -4.3110    1.3800  -22.1200 C   0  0  0  0  0  0  0  0  0  0  0  0
   -3.5570    1.8650  -21.0540 C   0  0  0  0  0  0  0  0  0  0  0  0
   -3.8590    1.5070  -19.7710 C   0  0  0  0  0  0  0  0  0  0  0  0
   -4.9420    0.6330  -19.5000 C   0  0  0  0  0  0  0  0  0  0  0  0
   -5.3080    0.2380  -18.1880 C   0  0  0  0  0  0  0  0  0  0  0  0
   -6.3180   -0.5770  -17.9100 N   0  0  0  0  0  0  0  0  0  0  0  0
   -7.0280   -1.0560  -18.9450 C   0  0  0  0  0  0  0  0  0  0  0  0
  2  1  1  0
  3  2  2  0
  4  3  1  0
  5  4  2  0
  6  2  1  0
  7  6  2  0
  7  5  1  0
  8  7  1  0
  8  9  1  6
 10  8  1  0
 11 10  2  0
 12 10  1  0
 13 12  1  0
 14 13  1  0
 14  8  1  0
 15 12  1  0
 16 15  1  0
 17 16  2  0
 18 17  1  0
 19 18  2  0
 20 19  1  0
 21 16  1  0
 21 20  2  0
 22 21  1  0
 23 22  2  0
 24 23  1  0
 24 15  2  0
M  END
$$$$

     RDKit          3D

 28 31  0  0  0  0  0  0  0  0999 V2000
   -9.3250    0.0440  -21.2600 O   0  0  0  0  0  0  0  0  0  0  0  0
   -8.7600   -0.9160  -21.7680 C   0  0  0  0  0  0  0  0  0  0  0  0
   -9.3260   -1.5690  -23.0420 C   0  0  1  0  0  0  0  0  0  0  0  0
  -10.8470   -1.3460  -23.1020 C   0  0  0  0  0  0  0  0  0  0  0  0
  -11.6840   -2.0500  -22.2390 C   0  0  0  0  0  0  0  0  0  0  0  0
  -13.0310   -1.7510  -22.2120 C   0  0  0  0  0  0  0  0  0  0  0  0
  -14.0530   -2.5770  -21.0700 Cl  0  0  0  0  0  0  0  0  0  0  0  0
  -13.5780   -0.7900  -23.0320 C   0  0  0  0  0  0  0  0  0  0  0  0
  -12.7620   -0.1170  -23.9220 C   0  0  0  0  0  0  0  0  0  0  0  0
  -11.3940   -0.3810  -23.9580 C   0  0  0  0  0  0  0  0  0  0  0  0
  -10.5930    0.3260  -24.8110 N   0  0  0  0  0  0  0  0  0  0  0  0
   -9.1780    0.4830  -24.5340 C   0  0  0  0  0  0  0  0  0  0  0  0
   -8.5670   -0.8570  -24.1870 C   0  0  0  0  0  0  0  0  0  0  0  0
   -9.0670   -3.0920  -23.0880 C   0  0  0  0  0  0  0  0  0  0  0  0
   -9.5510   -3.7430  -24.3690 C   0  0  0  0  0  0  0  0  0  0  0  0
   -9.7420   -5.1220  -24.4100 O   0  0  0  0  0  0  0  0  0  0  0  0
  -10.0770   -5.5540  -25.7170 C   0  0  0  0  0  0  0  0  0  0  0  0
   -7.6030   -1.4240  -21.2790 N   0  0  0  0  0  0  0  0  0  0  0  0
   -6.9020   -0.9680  -20.1440 C   0  0  0  0  0  0  0  0  0  0  0  0
   -5.7340   -0.1730  -20.3400 C   0  0  0  0  0  0  0  0  0  0  0  0
   -5.2050    0.1510  -21.6140 C   0  0  0  0  0  0  0  0  0  0  0  0
   -4.1210    0.9740  -21.7370 C   0  0  0  0  0  0  0  0  0  0  0  0
   -3.5080    1.5050  -20.6160 C   0  0  0  0  0  0  0  0  0  0  0  0
   -3.9680    1.2120  -19.3660 C   0  0  0  0  0  0  0  0  0  0  0  0
   -5.0940    0.3700  -19.1920 C   0  0  0  0  0  0  0  0  0  0  0  0
   -5.6460    0.0640  -17.9230 C   0  0  0  0  0  0  0  0  0  0  0  0
   -6.7240   -0.6840  -17.7420 N   0  0  0  0  0  0  0  0  0  0  0  0
   -7.3270   -1.1750  -18.8330 C   0  0  0  0  0  0  0  0  0  0  0  0
  2  1  2  0
  3  2  1  0
  4  3  1  0
  5  4  2  0
  6  5  1  0
  7  6  1  0
  8  6  2  0
  9  8  1  0
 10  9  2  0
 10  4  1  0
 11 10  1  0
 12 11  1  0
 13 12  1  0
 13  3  1  0
  3 14  1  1
 15 14  1  0
 16 15  1  0
 17 16  1  0
 18  2  1  0
 19 18  1  0
 20 19  1  0
 21 20  2  0
 22 21  1  0
 23 22  2  0
 24 23  1  0
 25 20  1  0
 25 24  2  0
 26 25  1  0
 27 26  2  0
 28 27  1  0
 28 19  2  0
M  END
$$$$

     RDKit          3D

 14 15  0  0  0  0  0  0  0  0999 V2000
  -10.2310   -2.7850  -23.0050 N   0  0  0  0  0  0  0  0  0  0  0  0
   -8.9760   -0.6250  -22.2830 C   0  0  0  0  0  0  0  0  0  0  0  0
  -11.3010   -3.2010  -23.9180 C   0  0  0  0  0  0  0  0  0  0  0  0
  -12.5630   -2.6810  -23.7320 C   0  0  0  0  0  0  0  0  0  0  0  0
  -13.6320   -3.0450  -24.5810 C   0  0  0  0  0  0  0  0  0  0  0  0
  -13.4190   -3.9270  -25.6170 C   0  0  0  0  0  0  0  0  0  0  0  0
  -11.0900   -4.0960  -24.9720 C   0  0  0  0  0  0  0  0  0  0  0  0
  -10.2620   -1.3640  -22.4170 C   0  0  0  0  0  0  0  0  0  0  0  0
   -8.7650   -3.2250  -23.1200 C   0  0  1  0  0  0  0  0  0  0  0  0
   -7.8430   -1.3830  -21.8210 C   0  0  2  0  0  0  0  0  0  0  0  0
  -12.1480   -4.4610  -25.8190 C   0  0  0  0  0  0  0  0  0  0  0  0
   -8.0060   -2.8360  -21.9300 N   0  0  0  0  0  0  0  0  0  0  0  0
   -8.6830   -4.5950  -23.2420 O   0  0  0  0  0  0  0  0  0  0  0  0
   -7.5670   -1.0390  -20.4420 O   0  0  0  0  0  0  0  0  0  0  0  0
  3  1  1  0
  4  3  2  0
  5  4  1  0
  6  5  2  0
  7  3  1  0
  8  2  2  0
  8  1  1  0
  9  1  1  0
 10  2  1  0
 11  7  2  0
 11  6  1  0
 12 10  1  0
 12  9  1  0
  9 13  1  1
 10 14  1  1
M  CHG  1  12   1
M  END
$$$$

     RDKit          3D

 23 24  0  0  0  0  0  0  0  0999 V2000
   -8.5460   -0.1560  -21.3050 O   0  0  0  0  0  0  0  0  0  0  0  0
   -8.0100   -1.2180  -21.5960 C   0  0  0  0  0  0  0  0  0  0  0  0
   -6.9580   -1.7230  -20.9250 N   0  0  0  0  0  0  0  0  0  0  0  0
   -6.2530   -1.0420  -19.9100 C   0  0  0  0  0  0  0  0  0  0  0  0
   -5.1270   -0.2660  -20.2440 C   0  0  0  0  0  0  0  0  0  0  0  0
   -4.6480   -0.1230  -21.6660 C   0  0  0  0  0  0  0  0  0  0  0  0
   -4.5030    0.4290  -19.2150 C   0  0  0  0  0  0  0  0  0  0  0  0
   -5.0070    0.3470  -17.9320 C   0  0  0  0  0  0  0  0  0  0  0  0
   -6.0810   -0.3810  -17.6040 N   0  0  0  0  0  0  0  0  0  0  0  0
   -6.6800   -1.0680  -18.5830 C   0  0  0  0  0  0  0  0  0  0  0  0
   -8.4840   -2.0650  -22.7630 C   0  0  0  0  0  0  0  0  0  0  0  0
   -9.9340   -1.7820  -23.0870 C   0  0  0  0  0  0  0  0  0  0  0  0
  -10.9440   -2.5200  -22.4830 C   0  0  0  0  0  0  0  0  0  0  0  0
  -12.2540   -2.1110  -22.6210 C   0  0  0  0  0  0  0  0  0  0  0  0
  -13.5170   -3.0700  -21.9130 Cl  0  0  0  0  0  0  0  0  0  0  0  0
  -12.5910   -0.9700  -23.3210 C   0  0  0  0  0  0  0  0  0  0  0  0
  -10.2750   -0.6750  -23.8560 C   0  0  0  0  0  0  0  0  0  0  0  0
  -11.5920   -0.2390  -23.9540 C   0  0  0  0  0  0  0  0  0  0  0  0
  -11.9420    0.9850  -24.7680 C   0  0  0  0  0  0  0  0  0  0  0  0
  -11.6440    2.2860  -24.1810 N   0  0  0  0  0  0  0  0  0  0  0  0
  -10.4970    2.8110  -23.7390 C   0  0  0  0  0  0  0  0  0  0  0  0
   -9.6420    2.1320  -23.1690 O   0  0  0  0  0  0  0  0  0  0  0  0
  -10.3050    4.2800  -23.9780 C   0  0  0  0  0  0  0  0  0  0  0  0
  2  1  2  0
  3  2  1  0
  4  3  1  0
  5  4  2  0
  6  5  1  0
  7  5  1  0
  8  7  2  0
  9  8  1  0
 10  9  2  0
 10  4  1  0
 11  2  1  0
 12 11  1  0
 13 12  2  0
 14 13  1  0
 15 14  1  0
 16 14  2  0
 17 12  1  0
 18 16  1  0
 18 17  2  0
 19 18  1  0
 20 19  1  0
 21 20  1  0
 22 21  2  0
 23 21  1  0
M  END
$$$$

     RDKit          3D

 24 26  0  0  0  0  0  0  0  0999 V2000
  -13.8170   -2.7860  -21.8010 Cl  0  0  0  0  0  0  0  0  0  0  0  0
  -12.5150   -1.9840  -22.6260 C   0  0  0  0  0  0  0  0  0  0  0  0
  -12.7660   -0.9660  -23.5410 C   0  0  0  0  0  0  0  0  0  0  0  0
  -14.3850   -0.4520  -23.8910 Cl  0  0  0  0  0  0  0  0  0  0  0  0
  -11.7120   -0.3200  -24.1580 C   0  0  0  0  0  0  0  0  0  0  0  0
  -10.4130   -0.6810  -23.8610 C   0  0  0  0  0  0  0  0  0  0  0  0
  -11.2160   -2.3520  -22.3280 C   0  0  0  0  0  0  0  0  0  0  0  0
  -10.1550   -1.6900  -22.9390 C   0  0  0  0  0  0  0  0  0  0  0  0
   -8.7370   -2.0600  -22.5900 C   0  0  1  0  0  0  0  0  0  0  0  0
   -8.6930   -3.3580  -22.1700 F   0  0  0  0  0  0  0  0  0  0  0  0
   -7.9590   -2.0100  -23.7090 F   0  0  0  0  0  0  0  0  0  0  0  0
   -8.1570   -1.1120  -21.5080 C   0  0  0  0  0  0  0  0  0  0  0  0
   -8.4930    0.0650  -21.4090 O   0  0  0  0  0  0  0  0  0  0  0  0
   -7.3420   -1.6930  -20.6120 N   0  0  0  0  0  0  0  0  0  0  0  0
   -6.3270   -1.2130  -19.7710 C   0  0  0  0  0  0  0  0  0  0  0  0
   -5.3240   -0.2930  -20.2270 C   0  0  0  0  0  0  0  0  0  0  0  0
   -4.9050   -0.1830  -21.5800 C   0  0  0  0  0  0  0  0  0  0  0  0
   -3.8590    0.6280  -21.9310 C   0  0  0  0  0  0  0  0  0  0  0  0
   -3.1900    1.3750  -20.9740 C   0  0  0  0  0  0  0  0  0  0  0  0
   -3.5580    1.3140  -19.6620 C   0  0  0  0  0  0  0  0  0  0  0  0
   -4.6250    0.4730  -19.2520 C   0  0  0  0  0  0  0  0  0  0  0  0
   -4.9890    0.2980  -17.8980 C   0  0  0  0  0  0  0  0  0  0  0  0
   -5.9060   -0.5560  -17.4770 N   0  0  0  0  0  0  0  0  0  0  0  0
   -6.5240   -1.2990  -18.3970 C   0  0  0  0  0  0  0  0  0  0  0  0
  2  1  1  0
  3  2  2  0
  4  3  1  0
  5  3  1  0
  6  5  2  0
  7  2  1  0
  8  7  2  0
  8  6  1  0
  9  8  1  0
  9 10  1  1
 11  9  1  0
 12  9  1  0
 13 12  2  0
 14 12  1  0
 15 14  1  0
 16 15  1  0
 17 16  2  0
 18 17  1  0
 19 18  2  0
 20 19  1  0
 21 20  2  0
 21 16  1  0
 22 21  1  0
 23 22  2  0
 24 23  1  0
 24 15  2  0
M  END
$$$$

     RDKit          3D

 18 19  0  0  0  0  0  0  0  0999 V2000
  -13.1620   -2.3680  -22.8550 C   0  0  0  0  0  0  0  0  0  0  0  0
   -7.3720    1.5830  -29.6600 C   0  0  0  0  0  0  0  0  0  0  0  0
   -6.1590    1.5200  -30.3180 C   0  0  0  0  0  0  0  0  0  0  0  0
   -5.6920    2.6440  -31.1950 C   0  0  0  0  0  0  0  0  0  0  0  0
   -5.3910    0.3830  -30.1510 C   0  0  0  0  0  0  0  0  0  0  0  0
   -5.8100   -0.6700  -29.3510 C   0  0  0  0  0  0  0  0  0  0  0  0
  -11.6930   -1.3960  -24.4990 C   0  0  0  0  0  0  0  0  0  0  0  0
  -10.9780   -1.6550  -25.8030 C   0  0  0  0  0  0  0  0  0  0  0  0
  -10.5610   -3.9500  -25.0720 C   0  0  0  0  0  0  0  0  0  0  0  0
  -11.3420   -3.6400  -23.8130 C   0  0  0  0  0  0  0  0  0  0  0  0
   -8.7210   -2.6250  -26.0970 C   0  0  0  0  0  0  0  0  0  0  0  0
   -8.3530   -1.3700  -26.8780 C   0  0  0  0  0  0  0  0  0  0  0  0
   -7.0270   -0.5870  -28.6930 C   0  0  0  0  0  0  0  0  0  0  0  0
   -7.8130    0.5500  -28.8480 C   0  0  0  0  0  0  0  0  0  0  0  0
  -12.3600   -2.6160  -24.0520 N   0  0  1  0  0  0  0  0  0  0  0  0
   -9.9960   -2.7350  -25.6670 N   0  0  0  0  0  0  0  0  0  0  0  0
   -7.8600   -3.4800  -25.8850 O   0  0  0  0  0  0  0  0  0  0  0  0
   -7.4200   -1.6440  -27.9130 O   0  0  0  0  0  0  0  0  0  0  0  0
  3  2  2  0
  4  3  1  0
  5  3  1  0
  6  5  2  0
  8  7  1  0
 10  9  1  0
 12 11  1  0
 13  6  1  0
 14 13  2  0
 14  2  1  0
 15 10  1  0
 15  7  1  0
 15  1  1  1
 16  8  1  0
 16 11  1  0
 16  9  1  0
 17 11  2  0
 18 13  1  0
 18 12  1  0
M  CHG  1  15   1
M  END
$$$$

     RDKit          3D

 13 13  0  0  0  0  0  0  0  0999 V2000
   -7.4410   -2.3940  -23.7760 C   0  0  0  0  0  0  0  0  0  0  0  0
   -8.5940   -3.1970  -23.1780 C   0  0  2  0  0  0  0  0  0  0  0  0
   -7.9400   -2.8320  -20.7850 C   0  0  0  0  0  0  0  0  0  0  0  0
   -7.6040   -3.4760  -19.4390 C   0  0  0  0  0  0  0  0  0  0  0  0
   -9.9440   -2.5010  -23.2310 C   0  0  0  0  0  0  0  0  0  0  0  0
  -10.1840   -1.3730  -24.0060 C   0  0  0  0  0  0  0  0  0  0  0  0
  -11.4410   -0.7940  -24.0360 C   0  0  0  0  0  0  0  0  0  0  0  0
  -12.4840   -1.3360  -23.3220 C   0  0  0  0  0  0  0  0  0  0  0  0
  -12.2470   -2.4600  -22.5700 C   0  0  0  0  0  0  0  0  0  0  0  0
  -11.0020   -3.0410  -22.5230 C   0  0  0  0  0  0  0  0  0  0  0  0
   -8.2510   -3.6370  -21.8120 N   0  0  0  0  0  0  0  0  0  0  0  0
   -7.9080   -1.5990  -20.8670 O   0  0  0  0  0  0  0  0  0  0  0  0
  -13.5370   -3.1700  -21.6480 Cl  0  0  0  0  0  0  0  0  0  0  0  0
  2  1  1  1
  4  3  1  0
  5  2  1  0
  6  5  2  0
  7  6  1  0
  8  7  2  0
  9  8  1  0
 10  9  2  0
 10  5  1  0
 11  2  1  0
 11  3  1  0
 12  3  2  0
 13  9  1  0
M  END
$$$$

     RDKit          3D

 37 42  0  0  0  0  0  0  0  0999 V2000
   -9.1670    6.1490  -23.0160 N   0  0  0  0  0  0  0  0  0  0  0  0
   -8.4690    5.2500  -23.0400 C   0  0  0  0  0  0  0  0  0  0  0  0
   -7.5730    4.0840  -23.0120 C   0  0  1  0  0  0  0  0  0  0  0  0
   -6.1900    4.3020  -23.5880 C   0  0  0  0  0  0  0  0  0  0  0  0
   -6.3610    4.2380  -22.1160 C   0  0  0  0  0  0  0  0  0  0  0  0
   -8.3050    2.7410  -23.1220 C   0  0  0  0  0  0  0  0  0  0  0  0
   -8.5760    1.9840  -24.7160 S   0  0  2  0  0  0  0  0  0  0  0  0
   -7.3220    1.4920  -25.1900 O   0  0  0  0  0  0  0  0  0  0  0  0
   -9.3130    2.9030  -25.5240 O   0  0  0  0  0  0  0  0  0  0  0  0
   -9.5370    0.6930  -24.4590 N   0  0  0  0  0  0  0  0  0  0  0  0
   -9.0020   -0.6640  -24.2640 C   0  0  0  0  0  0  0  0  0  0  0  0
  -10.9600    0.6970  -24.8290 C   0  0  0  0  0  0  0  0  0  0  0  0
  -11.7830   -0.1190  -23.8480 C   0  0  0  0  0  0  0  0  0  0  0  0
  -11.1960   -1.0550  -22.9790 C   0  0  0  0  0  0  0  0  0  0  0  0
  -11.9990   -1.7670  -22.0840 C   0  0  0  0  0  0  0  0  0  0  0  0
  -13.3610   -1.5320  -22.0540 C   0  0  0  0  0  0  0  0  0  0  0  0
  -14.3490   -2.4110  -20.9080 Cl  0  0  0  0  0  0  0  0  0  0  0  0
  -13.9530   -0.6180  -22.8960 C   0  0  0  0  0  0  0  0  0  0  0  0
  -13.1640    0.0770  -23.7920 C   0  0  0  0  0  0  0  0  0  0  0  0
   -9.6820   -1.2720  -23.0130 C   0  0  1  0  0  0  0  0  0  0  0  0
   -9.1940   -2.7240  -22.7190 C   0  0  1  0  0  0  0  0  0  0  0  0
   -9.1870   -3.6850  -23.9070 C   0  0  0  0  0  0  0  0  0  0  0  0
  -10.5850   -4.1020  -24.3330 C   0  0  0  0  0  0  0  0  0  0  0  0
   -9.0630   -0.5150  -21.8310 C   0  0  0  0  0  0  0  0  0  0  0  0
   -9.4540    0.5370  -21.3700 O   0  0  0  0  0  0  0  0  0  0  0  0
   -7.9720   -1.2120  -21.4040 N   0  0  0  0  0  0  0  0  0  0  0  0
   -7.8230   -2.5000  -22.0930 C   0  0  0  0  0  0  0  0  0  0  0  0
   -7.0670   -0.7930  -20.3700 C   0  0  0  0  0  0  0  0  0  0  0  0
   -5.9170    0.0100  -20.6390 C   0  0  0  0  0  0  0  0  0  0  0  0
   -5.5050    0.4000  -21.9430 C   0  0  0  0  0  0  0  0  0  0  0  0
   -4.3940    1.1740  -22.1300 C   0  0  0  0  0  0  0  0  0  0  0  0
   -3.6430    1.6110  -21.0440 C   0  0  0  0  0  0  0  0  0  0  0  0
   -3.9990    1.2670  -19.7690 C   0  0  0  0  0  0  0  0  0  0  0  0
   -5.1370    0.4550  -19.5310 C   0  0  0  0  0  0  0  0  0  0  0  0
   -5.5510    0.0620  -18.2290 C   0  0  0  0  0  0  0  0  0  0  0  0
   -6.6180   -0.6850  -17.9830 N   0  0  0  0  0  0  0  0  0  0  0  0
   -7.3400   -1.0920  -19.0390 C   0  0  0  0  0  0  0  0  0  0  0  0
  2  1  3  0
  3  2  1  1
  4  3  1  0
  5  4  1  0
  5  3  1  0
  6  3  1  0
  7  6  1  1
  8  7  2  0
  9  7  2  0
 10  7  1  0
 11 10  1  0
 12 10  1  0
 13 12  1  0
 14 13  2  0
 15 14  1  0
 16 15  2  0
 17 16  1  0
 18 16  1  0
 19 18  2  0
 19 13  1  0
 20 14  1  0
 20 11  1  6
 21 20  1  0
 21 22  1  6
 23 22  1  0
 24 20  1  0
 25 24  2  0
 26 24  1  0
 27 21  1  0
 27 26  1  0
 28 26  1  0
 29 28  1  0
 30 29  2  0
 31 30  1  0
 32 31  2  0
 33 32  1  0
 34 29  1  0
 34 33  2  0
 35 34  1  0
 36 35  2  0
 37 36  1  0
 37 28  2  0
M  END
$$$$

     RDKit          3D

 32 35  0  0  0  0  0  0  0  0999 V2000
   -6.8730   -1.2010  -25.2290 O   0  0  0  0  0  0  0  0  0  0  0  0
   -7.6610   -2.0550  -25.5660 C   0  0  0  0  0  0  0  0  0  0  0  0
   -8.6750   -2.4660  -24.7890 N   0  0  0  0  0  0  0  0  0  0  0  0
   -7.5850   -2.6840  -26.9420 C   0  0  0  0  0  0  0  0  0  0  0  0
   -6.2270   -3.1770  -28.9480 N   0  0  0  0  0  0  0  0  0  0  0  0
   -5.9740   -5.2440  -19.9990 O   0  0  0  0  0  0  0  0  0  0  0  0
   -6.9110   -4.6030  -20.4050 C   0  0  0  0  0  0  0  0  0  0  0  0
   -6.9000   -3.0740  -20.4890 C   0  0  2  0  0  0  0  0  0  0  0  0
   -6.7880   -2.4770  -19.1010 C   0  0  0  0  0  0  0  0  0  0  0  0
   -5.9800   -1.2300  -18.9560 C   0  0  0  0  0  0  0  0  0  0  0  0
   -5.8220   -0.5790  -17.8050 N   0  0  0  0  0  0  0  0  0  0  0  0
   -5.0230    0.4680  -18.0110 C   0  0  0  0  0  0  0  0  0  0  0  0
   -4.6720    0.4960  -19.2960 N   0  0  0  0  0  0  0  0  0  0  0  0
   -5.2570   -0.5570  -19.8970 C   0  0  0  0  0  0  0  0  0  0  0  0
   -8.1050   -2.5430  -21.1360 N   0  0  0  0  0  0  0  0  0  0  0  0
   -8.1440   -2.9940  -22.5110 C   0  0  0  0  0  0  0  0  0  0  0  0
   -8.7510   -1.9430  -23.4170 C   0  0  2  0  0  0  0  0  0  0  0  0
  -10.1950   -1.5750  -23.0500 C   0  0  0  0  0  0  0  0  0  0  0  0
  -11.2610   -2.5760  -23.4470 C   0  0  1  0  0  0  0  0  0  0  0  0
  -12.6480   -1.9610  -23.2440 C   0  0  0  0  0  0  0  0  0  0  0  0
  -13.7390   -2.9090  -23.6930 C   0  0  0  0  0  0  0  0  0  0  0  0
  -13.5260   -3.4820  -25.0970 C   0  0  0  0  0  0  0  0  0  0  0  0
  -12.1090   -3.9890  -25.2920 C   0  0  0  0  0  0  0  0  0  0  0  0
  -11.0940   -2.9290  -24.8940 C   0  0  2  0  0  0  0  0  0  0  0  0
   -9.6950   -3.4340  -25.1920 C   0  0  0  0  0  0  0  0  0  0  0  0
   -6.2930   -2.4300  -27.7040 C   0  0  0  0  0  0  0  0  0  0  0  0
   -6.5420   -4.4920  -29.0460 C   0  0  0  0  0  0  0  0  0  0  0  0
   -6.4230   -5.3610  -27.9540 C   0  0  0  0  0  0  0  0  0  0  0  0
   -6.7860   -6.7080  -28.0750 C   0  0  0  0  0  0  0  0  0  0  0  0
   -7.2500   -7.1690  -29.3010 C   0  0  0  0  0  0  0  0  0  0  0  0
   -7.3470   -6.3180  -30.3780 C   0  0  0  0  0  0  0  0  0  0  0  0
   -7.0070   -4.9850  -30.2410 C   0  0  0  0  0  0  0  0  0  0  0  0
  2  1  2  0
  3  2  1  0
  4  2  1  0
  7  6  2  0
  8  7  1  0
  8  9  1  1
 10  9  1  0
 11 10  1  0
 12 11  1  0
 13 12  2  0
 14 10  2  0
 14 13  1  0
 15  8  1  0
 16 15  1  0
 17 16  1  1
 17  3  1  0
 18 17  1  0
 19 18  1  6
 20 19  1  0
 21 20  1  0
 22 21  1  0
 23 22  1  0
 24 23  1  1
 24 19  1  0
 25 24  1  0
 25  3  1  0
 26  5  1  0
 26  4  1  0
 27  5  1  0
 28 27  2  0
 29 28  1  0
 30 29  2  0
 31 30  1  0
 32 31  2  0
 32 27  1  0
M  CHG  1  15   1
M  END
$$$$

     RDKit          3D

 32 36  0  0  0  0  0  0  0  0999 V2000
   -8.9350    0.2640  -21.4380 O   0  0  0  0  0  0  0  0  0  0  0  0
   -8.4400   -0.7750  -21.8430 C   0  0  0  0  0  0  0  0  0  0  0  0
   -7.3670   -1.4470  -21.2730 N   0  0  0  0  0  0  0  0  0  0  0  0
   -6.6020   -0.9660  -20.1260 C   0  0  0  0  0  0  0  0  0  0  0  0
   -5.4910   -0.0950  -20.3480 C   0  0  0  0  0  0  0  0  0  0  0  0
   -4.9620    0.2220  -21.6270 C   0  0  0  0  0  0  0  0  0  0  0  0
   -3.9140    1.0860  -21.7600 C   0  0  0  0  0  0  0  0  0  0  0  0
   -3.3370    1.6820  -20.6430 C   0  0  0  0  0  0  0  0  0  0  0  0
   -3.8010    1.3980  -19.3890 C   0  0  0  0  0  0  0  0  0  0  0  0
   -4.8800    0.5000  -19.2040 C   0  0  0  0  0  0  0  0  0  0  0  0
   -5.4090    0.1690  -17.9270 C   0  0  0  0  0  0  0  0  0  0  0  0
   -6.4500   -0.6350  -17.7330 N   0  0  0  0  0  0  0  0  0  0  0  0
   -7.0260   -1.1730  -18.8190 C   0  0  0  0  0  0  0  0  0  0  0  0
   -7.1740   -2.7310  -21.8160 C   0  0  0  0  0  0  0  0  0  0  0  0
   -6.2520   -3.4660  -21.5520 O   0  0  0  0  0  0  0  0  0  0  0  0
   -8.3130   -2.9800  -22.7770 C   0  0  0  0  0  0  0  0  0  0  0  0
   -8.8960   -1.5830  -23.0660 C   0  0  1  0  0  0  0  0  0  0  0  0
  -10.4220   -1.5220  -23.1960 C   0  0  0  0  0  0  0  0  0  0  0  0
  -11.2550   -2.3360  -22.4240 C   0  0  0  0  0  0  0  0  0  0  0  0
  -12.6140   -2.0900  -22.4160 C   0  0  0  0  0  0  0  0  0  0  0  0
  -13.6370   -3.0340  -21.3690 Cl  0  0  0  0  0  0  0  0  0  0  0  0
  -13.1780   -1.0910  -23.1690 C   0  0  0  0  0  0  0  0  0  0  0  0
  -12.3610   -0.3180  -23.9720 C   0  0  0  0  0  0  0  0  0  0  0  0
  -10.9860   -0.5190  -24.0010 C   0  0  0  0  0  0  0  0  0  0  0  0
  -10.1490    0.3400  -24.9200 C   0  0  0  0  0  0  0  0  0  0  0  0
   -8.2030   -0.9230  -24.2890 C   0  0  0  0  0  0  0  0  0  0  0  0
   -8.7450    0.4180  -24.4910 N   0  0  1  0  0  0  0  0  0  0  0  0
   -7.9640    1.3120  -25.3430 C   0  0  0  0  0  0  0  0  0  0  0  0
   -7.1700    2.3600  -24.5800 C   0  0  0  0  0  0  0  0  0  0  0  0
   -6.1620    2.8620  -25.0720 O   0  0  0  0  0  0  0  0  0  0  0  0
   -7.6070    2.6820  -23.3660 N   0  0  0  0  0  0  0  0  0  0  0  0
   -6.8620    3.5560  -22.4800 C   0  0  0  0  0  0  0  0  0  0  0  0
  2  1  2  0
  3  2  1  0
  4  3  1  0
  5  4  1  0
  6  5  2  0
  7  6  1  0
  8  7  2  0
  9  8  1  0
 10  5  1  0
 10  9  2  0
 11 10  1  0
 12 11  2  0
 13 12  1  0
 13  4  2  0
 14  3  1  0
 15 14  2  0
 16 14  1  0
 17 16  1  1
 17  2  1  0
 18 17  1  0
 19 18  2  0
 20 19  1  0
 21 20  1  0
 22 20  2  0
 23 22  1  0
 24 23  2  0
 24 18  1  0
 25 24  1  0
 26 17  1  0
 27 26  1  0
 27 25  1  0
 27 28  1  6
 29 28  1  0
 30 29  2  0
 31 29  1  0
 32 31  1  0
M  CHG  1  27   1
M  END
$$$$

     RDKit          3D

 27 29  0  0  0  0  0  0  0  0999 V2000
  -13.8940   -2.8640  -21.7220 Cl  0  0  0  0  0  0  0  0  0  0  0  0
  -12.5990   -2.1350  -22.6310 C   0  0  0  0  0  0  0  0  0  0  0  0
  -12.8980   -1.2040  -23.6080 C   0  0  0  0  0  0  0  0  0  0  0  0
  -11.8580   -0.6650  -24.3520 C   0  0  0  0  0  0  0  0  0  0  0  0
  -10.5460   -1.0320  -24.0870 C   0  0  0  0  0  0  0  0  0  0  0  0
  -11.2990   -2.5140  -22.3630 C   0  0  0  0  0  0  0  0  0  0  0  0
  -10.2520   -1.9430  -23.0780 C   0  0  0  0  0  0  0  0  0  0  0  0
   -8.8240   -2.2500  -22.7000 C   0  0  0  0  0  0  0  0  0  0  0  0
   -8.3080   -1.3040  -21.6340 C   0  0  0  0  0  0  0  0  0  0  0  0
   -8.8840   -0.2500  -21.3610 O   0  0  0  0  0  0  0  0  0  0  0  0
   -7.1800   -1.7110  -21.0230 N   0  0  0  0  0  0  0  0  0  0  0  0
   -6.4820   -1.0490  -19.9940 C   0  0  0  0  0  0  0  0  0  0  0  0
   -6.7670   -1.1910  -18.6340 C   0  0  0  0  0  0  0  0  0  0  0  0
   -6.1410   -0.5340  -17.6480 N   0  0  0  0  0  0  0  0  0  0  0  0
   -5.1800    0.3170  -17.9880 C   0  0  0  0  0  0  0  0  0  0  0  0
   -4.7850    0.5820  -19.3230 C   0  0  0  0  0  0  0  0  0  0  0  0
   -5.4570   -0.1240  -20.3620 C   0  0  0  0  0  0  0  0  0  0  0  0
   -5.1050    0.1630  -21.7060 C   0  0  0  0  0  0  0  0  0  0  0  0
   -4.1440    1.0840  -22.0020 C   0  0  0  0  0  0  0  0  0  0  0  0
   -3.7920    1.5320  -19.6630 C   0  0  0  0  0  0  0  0  0  0  0  0
   -3.4880    1.7650  -20.9820 C   0  0  0  0  0  0  0  0  0  0  0  0
   -2.5440    2.6550  -21.4380 O   0  0  0  0  0  0  0  0  0  0  0  0
   -1.9270    3.5410  -20.4890 C   0  0  0  0  0  0  0  0  0  0  0  0
   -0.9790    4.4680  -21.2240 C   0  0  0  0  0  0  0  0  0  0  0  0
   -1.4930    5.6090  -22.0080 N   0  0  2  0  0  0  0  0  0  0  0  0
   -2.8090    6.0920  -21.5760 C   0  0  0  0  0  0  0  0  0  0  0  0
   -1.5010    5.3190  -23.4410 C   0  0  0  0  0  0  0  0  0  0  0  0
  2  1  1  0
  3  2  2  0
  4  3  1  0
  5  4  2  0
  6  2  1  0
  7  6  2  0
  7  5  1  0
  8  7  1  0
  9  8  1  0
 10  9  2  0
 11  9  1  0
 12 11  1  0
 13 12  2  0
 14 13  1  0
 15 14  2  0
 16 15  1  0
 17 12  1  0
 17 16  2  0
 18 17  1  0
 19 18  2  0
 20 16  1  0
 21 19  1  0
 21 20  2  0
 22 21  1  0
 23 22  1  0
 24 23  1  0
 25 24  1  0
 25 26  1  1
 27 25  1  0
M  CHG  1  25   1
M  END
$$$$

     RDKit          3D

 30 33  0  0  0  0  0  0  0  0999 V2000
  -13.1840   -2.9720  -23.0830 S   0  0  0  0  0  0  0  0  0  0  0  0
   -8.0530   -5.3530  -26.4460 N   0  0  0  0  0  0  0  0  0  0  0  0
   -7.2360   -1.2590  -18.7610 N   0  0  0  0  0  0  0  0  0  0  0  0
   -6.8590   -1.1270  -20.0590 N   0  0  0  0  0  0  0  0  0  0  0  0
   -7.5880   -6.7960  -28.2910 C   0  0  0  0  0  0  0  0  0  0  0  0
  -12.2370   -1.3630  -24.8210 C   0  0  0  0  0  0  0  0  0  0  0  0
   -3.5230    1.1670  -19.5800 C   0  0  0  0  0  0  0  0  0  0  0  0
   -8.8000    0.3730  -21.2730 O   0  0  0  0  0  0  0  0  0  0  0  0
   -7.6500   -2.9800  -25.8290 C   0  0  0  0  0  0  0  0  0  0  0  0
   -7.3650   -5.4740  -27.6070 C   0  0  0  0  0  0  0  0  0  0  0  0
   -5.4590   -0.0140  -18.8270 C   0  0  0  0  0  0  0  0  0  0  0  0
   -8.6330   -2.1590  -23.7890 C   0  0  0  0  0  0  0  0  0  0  0  0
   -9.0280   -3.4560  -23.4720 C   0  0  0  0  0  0  0  0  0  0  0  0
   -8.7570   -4.4990  -24.3360 C   0  0  0  0  0  0  0  0  0  0  0  0
  -11.9020   -1.9540  -22.6160 C   0  0  0  0  0  0  0  0  0  0  0  0
  -11.4750   -1.1560  -23.6370 C   0  0  0  0  0  0  0  0  0  0  0  0
   -4.9290    0.0390  -21.2000 C   0  0  0  0  0  0  0  0  0  0  0  0
   -4.3470    0.7680  -18.5350 C   0  0  0  0  0  0  0  0  0  0  0  0
  -10.2420   -0.3020  -23.4950 C   0  0  0  0  0  0  0  0  0  0  0  0
  -13.2050   -2.3290  -24.6800 C   0  0  0  0  0  0  0  0  0  0  0  0
   -3.8120    0.8070  -20.8970 C   0  0  0  0  0  0  0  0  0  0  0  0
   -8.5580   -0.6990  -21.7990 C   0  0  0  0  0  0  0  0  0  0  0  0
   -6.3360   -7.3480  -28.9340 C   0  0  0  0  0  0  0  0  0  0  0  0
   -9.0930   -1.0560  -23.0040 N   0  0  0  0  0  0  0  0  0  0  0  0
   -6.6220   -4.6120  -28.0680 O   0  0  0  0  0  0  0  0  0  0  0  0
   -7.9080   -1.9350  -24.9570 C   0  0  0  0  0  0  0  0  0  0  0  0
   -8.1040   -4.2640  -25.5400 C   0  0  0  0  0  0  0  0  0  0  0  0
   -7.6490   -1.7240  -21.1170 C   0  0  0  0  0  0  0  0  0  0  0  0
   -5.7360   -0.3630  -20.1450 C   0  0  0  0  0  0  0  0  0  0  0  0
   -6.4080   -0.5920  -18.0110 N   0  0  0  0  0  0  0  0  0  0  0  0
  4  3  1  0
 10  5  1  0
 10  2  1  0
 13 12  2  0
 14 13  1  0
 15  1  1  0
 16 15  2  0
 16  6  1  0
 18 11  2  0
 18  7  1  0
 19 16  1  0
 20  6  2  0
 20  1  1  0
 21 17  1  0
 21  7  2  0
 22  8  2  0
 23  5  1  0
 24 19  1  0
 24 12  1  0
 24 22  1  0
 25 10  2  0
 26 12  1  0
 26  9  2  0
 27 14  2  0
 27  9  1  0
 27  2  1  0
 28 22  1  0
 28  4  1  0
 29 11  1  0
 29  4  1  0
 29 17  2  0
 30 11  1  0
 30  3  2  0
M  END
$$$$

     RDKit          3D

 41 46  0  0  0  0  0  0  0  0999 V2000
   -9.3670    0.3770  -21.4020 O   0  0  0  0  0  0  0  0  0  0  0  0
   -8.9200   -0.6440  -21.8830 C   0  0  0  0  0  0  0  0  0  0  0  0
   -9.4770   -1.3900  -23.1010 C   0  0  1  0  0  0  0  0  0  0  0  0
  -11.0000   -1.2250  -23.1120 C   0  0  0  0  0  0  0  0  0  0  0  0
  -11.7900   -2.0100  -22.2710 C   0  0  0  0  0  0  0  0  0  0  0  0
  -13.1410   -1.7440  -22.1660 C   0  0  0  0  0  0  0  0  0  0  0  0
  -14.1090   -2.7060  -21.0800 Cl  0  0  0  0  0  0  0  0  0  0  0  0
  -13.7400   -0.7410  -22.8950 C   0  0  0  0  0  0  0  0  0  0  0  0
  -12.9690    0.0070  -23.7640 C   0  0  0  0  0  0  0  0  0  0  0  0
  -11.5990   -0.2170  -23.8860 C   0  0  0  0  0  0  0  0  0  0  0  0
  -10.8020    0.6300  -24.8590 C   0  0  0  0  0  0  0  0  0  0  0  0
   -9.3690    0.6070  -24.5360 N   0  0  0  0  0  0  0  0  0  0  0  0
   -8.4430    1.9360  -24.7010 S   0  0  1  0  0  0  0  0  0  0  0  0
   -9.1690    2.8600  -25.5140 O   0  0  0  0  0  0  0  0  0  0  0  0
   -8.2820    2.6240  -23.0640 C   0  0  0  0  0  0  0  0  0  0  0  0
   -7.4590    3.8860  -22.8470 C   0  0  2  0  0  0  0  0  0  0  0  0
   -8.2920    5.0920  -22.8810 C   0  0  0  0  0  0  0  0  0  0  0  0
   -8.9770    6.0020  -22.8890 N   0  0  0  0  0  0  0  0  0  0  0  0
   -6.0750    3.9980  -23.4480 C   0  0  0  0  0  0  0  0  0  0  0  0
   -6.2190    3.8670  -21.9800 C   0  0  0  0  0  0  0  0  0  0  0  0
   -7.1500    1.5010  -25.1260 O   0  0  0  0  0  0  0  0  0  0  0  0
   -8.8350   -0.7540  -24.3610 C   0  0  0  0  0  0  0  0  0  0  0  0
   -8.9710   -2.8290  -22.8470 C   0  0  0  0  0  0  0  0  0  0  0  0
   -7.6650   -2.6360  -22.0850 C   0  0  0  0  0  0  0  0  0  0  0  0
   -7.8530   -1.3450  -21.4020 N   0  0  0  0  0  0  0  0  0  0  0  0
   -7.0110   -0.9220  -20.3180 C   0  0  0  0  0  0  0  0  0  0  0  0
   -7.4410   -1.1240  -19.0100 C   0  0  0  0  0  0  0  0  0  0  0  0
   -6.8200   -0.6770  -17.9090 N   0  0  0  0  0  0  0  0  0  0  0  0
   -5.6970    0.0070  -18.0770 C   0  0  0  0  0  0  0  0  0  0  0  0
   -5.7930   -0.1990  -20.5020 C   0  0  0  0  0  0  0  0  0  0  0  0
   -5.1190    0.2830  -19.3420 C   0  0  0  0  0  0  0  0  0  0  0  0
   -3.9340    1.0420  -19.5030 C   0  0  0  0  0  0  0  0  0  0  0  0
   -3.4370    1.3070  -20.7450 C   0  0  0  0  0  0  0  0  0  0  0  0
   -5.2480    0.0960  -21.7730 C   0  0  0  0  0  0  0  0  0  0  0  0
   -4.0950    0.8360  -21.8790 C   0  0  0  0  0  0  0  0  0  0  0  0
   -3.5060    1.1700  -23.0780 O   0  0  0  0  0  0  0  0  0  0  0  0
   -4.2380    0.9410  -24.2990 C   0  0  0  0  0  0  0  0  0  0  0  0
   -3.2710    0.9570  -25.4610 C   0  0  0  0  0  0  0  0  0  0  0  0
   -3.3090    2.1970  -26.2450 N   0  0  2  0  0  0  0  0  0  0  0  0
   -3.6940    1.9170  -27.6250 C   0  0  0  0  0  0  0  0  0  0  0  0
   -2.0190    2.8800  -26.2150 C   0  0  0  0  0  0  0  0  0  0  0  0
  2  1  2  0
  3  2  1  0
  4  3  1  0
  5  4  2  0
  6  5  1  0
  7  6  1  0
  8  6  2  0
  9  8  1  0
 10  9  2  0
 10  4  1  0
 11 10  1  0
 12 11  1  0
 13 12  1  0
 14 13  2  0
 13 15  1  1
 16 15  1  6
 17 16  1  0
 18 17  3  0
 19 16  1  0
 20 19  1  0
 20 16  1  0
 21 13  2  0
 22 12  1  0
  3 22  1  6
 23  3  1  0
 24 23  1  0
 25 24  1  0
 25  2  1  0
 26 25  1  0
 27 26  2  0
 28 27  1  0
 29 28  2  0
 30 26  1  0
 31 30  2  0
 31 29  1  0
 32 31  1  0
 33 32  2  0
 34 30  1  0
 35 34  2  0
 35 33  1  0
 36 35  1  0
 37 36  1  0
 38 37  1  0
 39 38  1  0
 39 40  1  6
 41 39  1  0
M  CHG  1  39   1
M  END
$$$$

     RDKit          3D

 18 19  0  0  0  0  0  0  0  0999 V2000
   -8.3120   -0.5290  -21.5350 O   0  0  0  0  0  0  0  0  0  0  0  0
   -7.5500   -1.4870  -21.7390 C   0  0  0  0  0  0  0  0  0  0  0  0
   -7.6950   -2.4170  -22.9270 C   0  0  0  0  0  0  0  0  0  0  0  0
   -9.1390   -2.3760  -23.3360 C   0  0  0  0  0  0  0  0  0  0  0  0
  -10.1100   -2.8980  -22.4990 C   0  0  0  0  0  0  0  0  0  0  0  0
  -11.4390   -2.5690  -22.6700 C   0  0  0  0  0  0  0  0  0  0  0  0
   -9.5470   -1.5900  -24.4010 C   0  0  0  0  0  0  0  0  0  0  0  0
  -10.8780   -1.2750  -24.5770 C   0  0  0  0  0  0  0  0  0  0  0  0
  -11.8420   -1.7340  -23.6970 C   0  0  0  0  0  0  0  0  0  0  0  0
  -13.2710   -1.2920  -23.8160 C   0  0  0  0  0  0  0  0  0  0  0  0
   -6.5020   -1.7880  -20.9700 N   0  0  0  0  0  0  0  0  0  0  0  0
   -6.0320   -0.9840  -19.9220 C   0  0  0  0  0  0  0  0  0  0  0  0
   -4.9530   -0.1180  -20.1380 C   0  0  0  0  0  0  0  0  0  0  0  0
   -4.3840    0.1250  -21.5130 C   0  0  0  0  0  0  0  0  0  0  0  0
   -4.4660    0.5740  -19.0410 C   0  0  0  0  0  0  0  0  0  0  0  0
   -5.0840    0.4290  -17.8180 C   0  0  0  0  0  0  0  0  0  0  0  0
   -6.1450   -0.3580  -17.6170 N   0  0  0  0  0  0  0  0  0  0  0  0
   -6.6000   -1.0580  -18.6590 C   0  0  0  0  0  0  0  0  0  0  0  0
  2  1  2  0
  3  2  1  0
  4  3  1  0
  5  4  2  0
  6  5  1  0
  7  4  1  0
  8  7  2  0
  9  6  2  0
  9  8  1  0
 10  9  1  0
 11  2  1  0
 12 11  1  0
 13 12  2  0
 14 13  1  0
 15 13  1  0
 16 15  2  0
 17 16  1  0
 18 17  2  0
 18 12  1  0
M  END
$$$$

     RDKit          3D

 32 35  0  0  0  0  0  0  0  0999 V2000
  -13.8550   -2.8840  -21.4690 Cl  0  0  0  0  0  0  0  0  0  0  0  0
  -12.6960   -2.0110  -22.4370 C   0  0  0  0  0  0  0  0  0  0  0  0
  -11.3570   -2.3580  -22.3670 C   0  0  0  0  0  0  0  0  0  0  0  0
  -13.1340   -1.0030  -23.2620 C   0  0  0  0  0  0  0  0  0  0  0  0
  -12.2210   -0.3500  -24.0670 C   0  0  0  0  0  0  0  0  0  0  0  0
  -10.8650   -0.6720  -24.0300 C   0  0  0  0  0  0  0  0  0  0  0  0
   -9.9290    0.0510  -24.9740 C   0  0  0  0  0  0  0  0  0  0  0  0
   -8.5310   -0.1460  -24.5780 N   0  0  0  0  0  0  0  0  0  0  0  0
   -7.4130    0.8100  -25.2130 S   0  0  1  0  0  0  0  0  0  0  0  0
   -6.1470    0.3880  -24.7240 O   0  0  0  0  0  0  0  0  0  0  0  0
   -7.6590    0.8860  -26.6130 O   0  0  0  0  0  0  0  0  0  0  0  0
   -7.7720    2.2260  -24.5650 N   0  0  0  0  0  0  0  0  0  0  0  0
   -7.6580    2.4250  -23.1060 C   0  0  0  0  0  0  0  0  0  0  0  0
   -6.6320    3.4280  -22.7720 C   0  0  0  0  0  0  0  0  0  0  0  0
   -5.8570    4.2090  -22.4690 N   0  0  0  0  0  0  0  0  0  0  0  0
   -7.7060    3.4230  -25.4100 C   0  0  0  0  0  0  0  0  0  0  0  0
  -10.4230   -1.6720  -23.1480 C   0  0  0  0  0  0  0  0  0  0  0  0
   -8.9350   -1.9470  -22.9990 C   0  0  1  0  0  0  0  0  0  0  0  0
   -8.1840   -1.5460  -24.2700 C   0  0  0  0  0  0  0  0  0  0  0  0
   -8.4080   -1.1180  -21.8230 C   0  0  0  0  0  0  0  0  0  0  0  0
   -9.0010   -0.1220  -21.4080 O   0  0  0  0  0  0  0  0  0  0  0  0
   -7.2460   -1.5670  -21.2820 N   0  0  0  0  0  0  0  0  0  0  0  0
   -6.5420   -1.0370  -20.1740 C   0  0  0  0  0  0  0  0  0  0  0  0
   -5.3890   -0.2200  -20.4050 C   0  0  0  0  0  0  0  0  0  0  0  0
   -4.8120   -0.0110  -21.6850 C   0  0  0  0  0  0  0  0  0  0  0  0
   -3.7290    0.8070  -21.8430 C   0  0  0  0  0  0  0  0  0  0  0  0
   -3.1640    1.4530  -20.7510 C   0  0  0  0  0  0  0  0  0  0  0  0
   -3.6750    1.2790  -19.4980 C   0  0  0  0  0  0  0  0  0  0  0  0
   -4.7900    0.4320  -19.2860 C   0  0  0  0  0  0  0  0  0  0  0  0
   -5.3490    0.1920  -18.0050 C   0  0  0  0  0  0  0  0  0  0  0  0
   -6.4010   -0.5870  -17.7860 N   0  0  0  0  0  0  0  0  0  0  0  0
   -6.9740   -1.1710  -18.8510 C   0  0  0  0  0  0  0  0  0  0  0  0
  2  1  1  0
  3  2  2  0
  4  2  1  0
  5  4  2  0
  6  5  1  0
  7  6  1  0
  8  7  1  0
  9  8  1  0
 10  9  2  0
 11  9  2  0
  9 12  1  1
 13 12  1  0
 14 13  1  0
 15 14  3  0
 16 12  1  0
 17  3  1  0
 17  6  2  0
 18 17  1  0
 19 18  1  0
 19  8  1  0
 18 20  1  1
 21 20  2  0
 22 20  1  0
 23 22  1  0
 24 23  1  0
 25 24  2  0
 26 25  1  0
 27 26  2  0
 28 27  1  0
 29 28  2  0
 29 24  1  0
 30 29  1  0
 31 30  2  0
 32 31  1  0
 32 23  2  0
M  END
$$$$

     RDKit          3D

 28 31  0  0  0  0  0  0  0  0999 V2000
   -9.0810    0.0630  -21.2580 O   0  0  0  0  0  0  0  0  0  0  0  0
   -8.7940   -1.0570  -21.6710 C   0  0  0  0  0  0  0  0  0  0  0  0
   -7.6980   -1.8730  -21.0130 C   0  0  0  0  0  0  0  0  0  0  0  0
   -6.9500   -1.0970  -19.9550 C   0  0  0  0  0  0  0  0  0  0  0  0
   -5.9040   -0.2000  -20.3090 C   0  0  0  0  0  0  0  0  0  0  0  0
   -5.5370    0.0810  -21.6520 C   0  0  0  0  0  0  0  0  0  0  0  0
   -4.5350    0.9660  -21.9380 C   0  0  0  0  0  0  0  0  0  0  0  0
   -3.8550    1.6170  -20.9170 C   0  0  0  0  0  0  0  0  0  0  0  0
   -4.1720    1.3820  -19.6110 C   0  0  0  0  0  0  0  0  0  0  0  0
   -5.1990    0.4670  -19.2710 C   0  0  0  0  0  0  0  0  0  0  0  0
   -5.5900    0.1930  -17.9390 C   0  0  0  0  0  0  0  0  0  0  0  0
   -6.5770   -0.6290  -17.6100 N   0  0  0  0  0  0  0  0  0  0  0  0
   -7.2280   -1.2470  -18.6080 C   0  0  0  0  0  0  0  0  0  0  0  0
   -9.4140   -1.6100  -22.7370 N   0  0  0  0  0  0  0  0  0  0  0  0
  -10.3530   -0.8260  -23.5110 C   0  0  0  0  0  0  0  0  0  0  0  0
  -11.7620   -1.1720  -23.1410 C   0  0  0  0  0  0  0  0  0  0  0  0
  -13.0680   -0.4180  -23.9000 S   0  0  0  0  0  0  0  0  0  0  0  0
  -14.1990   -1.2600  -22.9220 C   0  0  0  0  0  0  0  0  0  0  0  0
  -13.6120   -2.1020  -22.0450 C   0  0  0  0  0  0  0  0  0  0  0  0
  -12.2010   -2.0810  -22.1520 C   0  0  0  0  0  0  0  0  0  0  0  0
   -9.2020   -2.9950  -23.1820 C   0  0  0  0  0  0  0  0  0  0  0  0
   -8.2080   -3.0810  -24.3300 C   0  0  0  0  0  0  0  0  0  0  0  0
   -8.1510   -4.5050  -24.8930 C   0  0  1  0  0  0  0  0  0  0  0  0
   -9.4370   -4.8680  -25.6340 C   0  0  0  0  0  0  0  0  0  0  0  0
   -9.3920   -6.2740  -26.2320 C   0  0  0  0  0  0  0  0  0  0  0  0
   -8.1830   -6.4560  -27.1420 C   0  0  0  0  0  0  0  0  0  0  0  0
   -6.8980   -6.1130  -26.4060 C   0  0  0  0  0  0  0  0  0  0  0  0
   -6.9520   -4.7020  -25.8190 C   0  0  0  0  0  0  0  0  0  0  0  0
  2  1  2  0
  3  2  1  0
  4  3  1  0
  5  4  1  0
  6  5  2  0
  7  6  1  0
  8  7  2  0
  9  8  1  0
 10  5  1  0
 10  9  2  0
 11 10  1  0
 12 11  2  0
 13 12  1  0
 13  4  2  0
 14  2  1  0
 15 14  1  0
 16 15  1  0
 17 16  1  0
 18 17  1  0
 19 18  2  0
 20 19  1  0
 20 16  2  0
 21 14  1  0
 22 21  1  0
 23 22  1  6
 24 23  1  0
 25 24  1  0
 26 25  1  0
 27 26  1  0
 28 27  1  0
 28 23  1  0
M  END
$$$$

     RDKit          3D

 23 25  0  0  0  0  0  0  0  0999 V2000
  -13.5730   -3.0110  -21.8890 Cl  0  0  0  0  0  0  0  0  0  0  0  0
  -12.3200   -2.0880  -22.6590 C   0  0  0  0  0  0  0  0  0  0  0  0
  -12.6260   -1.0920  -23.5770 C   0  0  0  0  0  0  0  0  0  0  0  0
  -14.2660   -0.6120  -23.8590 Cl  0  0  0  0  0  0  0  0  0  0  0  0
  -11.6100   -0.4030  -24.2110 C   0  0  0  0  0  0  0  0  0  0  0  0
  -10.2920   -0.6900  -23.9100 C   0  0  0  0  0  0  0  0  0  0  0  0
  -11.0000   -2.3620  -22.3500 C   0  0  0  0  0  0  0  0  0  0  0  0
   -9.9690   -1.6640  -22.9720 C   0  0  0  0  0  0  0  0  0  0  0  0
   -8.5200   -2.0180  -22.6650 C   0  0  2  0  0  0  0  0  0  0  0  0
   -8.3210   -3.5460  -22.7020 C   0  0  0  0  0  0  0  0  0  0  0  0
   -8.0600   -1.1670  -21.4700 C   0  0  0  0  0  0  0  0  0  0  0  0
   -8.6280   -0.1150  -21.1750 O   0  0  0  0  0  0  0  0  0  0  0  0
   -6.9370   -1.5990  -20.8320 N   0  0  0  0  0  0  0  0  0  0  0  0
   -6.2250   -0.9600  -19.8010 C   0  0  0  0  0  0  0  0  0  0  0  0
   -5.1850   -0.0470  -20.1580 C   0  0  0  0  0  0  0  0  0  0  0  0
   -4.7850    0.2120  -21.4960 C   0  0  0  0  0  0  0  0  0  0  0  0
   -3.8090    1.1260  -21.7730 C   0  0  0  0  0  0  0  0  0  0  0  0
   -3.1830    1.8270  -20.7480 C   0  0  0  0  0  0  0  0  0  0  0  0
   -3.5270    1.6070  -19.4450 C   0  0  0  0  0  0  0  0  0  0  0  0
   -4.5370    0.6660  -19.1140 C   0  0  0  0  0  0  0  0  0  0  0  0
   -4.9670    0.4190  -17.7860 C   0  0  0  0  0  0  0  0  0  0  0  0
   -5.9310   -0.4310  -17.4590 N   0  0  0  0  0  0  0  0  0  0  0  0
   -6.5320   -1.0980  -18.4500 C   0  0  0  0  0  0  0  0  0  0  0  0
  2  1  1  0
  3  2  2  0
  4  3  1  0
  5  3  1  0
  6  5  2  0
  7  2  1  0
  8  7  2  0
  8  6  1  0
  9  8  1  0
  9 10  1  1
 11  9  1  0
 12 11  2  0
 13 11  1  0
 14 13  1  0
 15 14  1  0
 16 15  2  0
 17 16  1  0
 18 17  2  0
 19 18  1  0
 20 19  2  0
 20 15  1  0
 21 20  1  0
 22 21  2  0
 23 22  1  0
 23 14  2  0
M  END
$$$$

     RDKit          3D

 27 29  0  0  0  0  0  0  0  0999 V2000
  -13.6450   -2.9930  -22.3160 Cl  0  0  0  0  0  0  0  0  0  0  0  0
  -12.2230   -2.1390  -22.8190 C   0  0  0  0  0  0  0  0  0  0  0  0
  -12.3110   -1.0590  -23.6810 C   0  0  0  0  0  0  0  0  0  0  0  0
  -13.8490   -0.3880  -24.1090 Cl  0  0  0  0  0  0  0  0  0  0  0  0
  -11.1580   -0.4740  -24.1760 C   0  0  0  0  0  0  0  0  0  0  0  0
   -9.9230   -0.9540  -23.7830 C   0  0  0  0  0  0  0  0  0  0  0  0
  -10.9850   -2.6000  -22.4060 C   0  0  0  0  0  0  0  0  0  0  0  0
   -9.8200   -2.0040  -22.8780 C   0  0  0  0  0  0  0  0  0  0  0  0
   -8.4730   -2.4640  -22.3790 C   0  0  1  0  0  0  0  0  0  0  0  0
   -7.6910   -2.9480  -23.4740 O   0  0  0  0  0  0  0  0  0  0  0  0
   -7.7450   -4.3690  -23.6350 C   0  0  0  0  0  0  0  0  0  0  0  0
   -6.6670   -5.0260  -22.8260 C   0  0  0  0  0  0  0  0  0  0  0  0
   -6.5330   -6.4300  -23.0280 O   0  0  0  0  0  0  0  0  0  0  0  0
   -5.4230   -6.9590  -22.3170 C   0  0  0  0  0  0  0  0  0  0  0  0
   -7.7980   -1.3930  -21.5150 C   0  0  0  0  0  0  0  0  0  0  0  0
   -7.9810   -0.1990  -21.7360 O   0  0  0  0  0  0  0  0  0  0  0  0
   -7.1660   -1.8630  -20.4240 N   0  0  0  0  0  0  0  0  0  0  0  0
   -6.2570   -1.2450  -19.5470 C   0  0  0  0  0  0  0  0  0  0  0  0
   -5.3330   -0.2400  -19.9850 C   0  0  0  0  0  0  0  0  0  0  0  0
   -4.8920   -0.0970  -21.3280 C   0  0  0  0  0  0  0  0  0  0  0  0
   -3.9060    0.7910  -21.6570 C   0  0  0  0  0  0  0  0  0  0  0  0
   -3.3090    1.5760  -20.6860 C   0  0  0  0  0  0  0  0  0  0  0  0
   -3.7000    1.4830  -19.3830 C   0  0  0  0  0  0  0  0  0  0  0  0
   -4.7190    0.5760  -18.9950 C   0  0  0  0  0  0  0  0  0  0  0  0
   -5.0840    0.3610  -17.6480 C   0  0  0  0  0  0  0  0  0  0  0  0
   -5.9240   -0.5730  -17.2440 N   0  0  0  0  0  0  0  0  0  0  0  0
   -6.4700   -1.3580  -18.1770 C   0  0  0  0  0  0  0  0  0  0  0  0
  2  1  1  0
  3  2  2  0
  4  3  1  0
  5  3  1  0
  6  5  2  0
  7  2  1  0
  8  7  2  0
  8  6  1  0
  9  8  1  0
  9 10  1  6
 11 10  1  0
 12 11  1  0
 13 12  1  0
 14 13  1  0
 15  9  1  0
 16 15  2  0
 17 15  1  0
 18 17  1  0
 19 18  1  0
 20 19  2  0
 21 20  1  0
 22 21  2  0
 23 22  1  0
 24 23  2  0
 24 19  1  0
 25 24  1  0
 26 25  2  0
 27 26  1  0
 27 18  2  0
M  END
$$$$

     RDKit          3D

 30 33  0  0  0  0  0  0  0  0999 V2000
  -13.7330   -2.7540  -21.5740 Cl  0  0  0  0  0  0  0  0  0  0  0  0
  -12.5400   -1.9740  -22.5750 C   0  0  0  0  0  0  0  0  0  0  0  0
  -11.2150   -2.3400  -22.4500 C   0  0  0  0  0  0  0  0  0  0  0  0
  -12.9360   -0.9810  -23.4390 C   0  0  0  0  0  0  0  0  0  0  0  0
  -11.9800   -0.3390  -24.2070 C   0  0  0  0  0  0  0  0  0  0  0  0
  -10.6300   -0.6650  -24.0940 C   0  0  0  0  0  0  0  0  0  0  0  0
   -9.6170    0.0770  -24.9380 C   0  0  0  0  0  0  0  0  0  0  0  0
   -8.2390   -0.1090  -24.4580 N   0  0  2  0  0  0  0  0  0  0  0  0
   -7.2480    0.5280  -25.3170 C   0  0  0  0  0  0  0  0  0  0  0  0
   -6.6030    1.7640  -24.7110 C   0  0  0  0  0  0  0  0  0  0  0  0
   -5.7600    2.3950  -25.3420 O   0  0  0  0  0  0  0  0  0  0  0  0
   -6.9800    2.1090  -23.4830 N   0  0  0  0  0  0  0  0  0  0  0  0
   -6.4000    3.2360  -22.7790 C   0  0  0  0  0  0  0  0  0  0  0  0
  -10.2420   -1.6710  -23.1940 C   0  0  0  0  0  0  0  0  0  0  0  0
   -8.7700   -1.9690  -22.9880 C   0  0  1  0  0  0  0  0  0  0  0  0
   -7.9650   -1.5240  -24.2090 C   0  0  0  0  0  0  0  0  0  0  0  0
   -8.2830   -1.1750  -21.7720 C   0  0  0  0  0  0  0  0  0  0  0  0
   -8.7720   -0.0890  -21.4600 O   0  0  0  0  0  0  0  0  0  0  0  0
   -7.2310   -1.7310  -21.1260 N   0  0  0  0  0  0  0  0  0  0  0  0
   -6.4850   -1.1960  -20.0530 C   0  0  0  0  0  0  0  0  0  0  0  0
   -5.3890   -0.3300  -20.3610 C   0  0  0  0  0  0  0  0  0  0  0  0
   -4.8670   -0.1610  -21.6670 C   0  0  0  0  0  0  0  0  0  0  0  0
   -3.8190    0.6780  -21.9030 C   0  0  0  0  0  0  0  0  0  0  0  0
   -3.2680    1.3730  -20.8530 C   0  0  0  0  0  0  0  0  0  0  0  0
   -2.2420    2.2240  -21.1170 F   0  0  0  0  0  0  0  0  0  0  0  0
   -3.7010    1.2660  -19.5710 C   0  0  0  0  0  0  0  0  0  0  0  0
   -4.7830    0.3970  -19.2940 C   0  0  0  0  0  0  0  0  0  0  0  0
   -5.3000    0.2020  -17.9870 C   0  0  0  0  0  0  0  0  0  0  0  0
   -6.3160   -0.6010  -17.6990 N   0  0  0  0  0  0  0  0  0  0  0  0
   -6.8820   -1.2710  -18.7160 C   0  0  0  0  0  0  0  0  0  0  0  0
  2  1  1  0
  3  2  2  0
  4  2  1  0
  5  4  2  0
  6  5  1  0
  7  6  1  0
  8  7  1  0
  8  9  1  6
 10  9  1  0
 11 10  2  0
 12 10  1  0
 13 12  1  0
 14  3  1  0
 14  6  2  0
 15 14  1  0
 16 15  1  0
 16  8  1  0
 15 17  1  1
 18 17  2  0
 19 17  1  0
 20 19  1  0
 21 20  1  0
 22 21  2  0
 23 22  1  0
 24 23  2  0
 25 24  1  0
 26 24  1  0
 27 26  2  0
 27 21  1  0
 28 27  1  0
 29 28  2  0
 30 29  1  0
 30 20  2  0
M  CHG  1   8   1
M  END
$$$$

     RDKit          3D

 16 16  0  0  0  0  0  0  0  0999 V2000
   -9.4040   -0.1770  -21.5460 O   0  0  0  0  0  0  0  0  0  0  0  0
   -8.9780   -1.3160  -21.7300 C   0  0  0  0  0  0  0  0  0  0  0  0
   -9.7860   -2.3260  -22.5420 C   0  0  1  0  0  0  0  0  0  0  0  0
  -11.1320   -1.8540  -22.7500 O   0  0  0  0  0  0  0  0  0  0  0  0
  -12.0800   -2.3510  -21.9060 C   0  0  2  0  0  0  0  0  0  0  0  0
  -12.6500   -3.3980  -22.5100 F   0  0  0  0  0  0  0  0  0  0  0  0
  -13.0750   -1.4490  -21.8370 F   0  0  0  0  0  0  0  0  0  0  0  0
   -9.2070   -2.5430  -23.9240 C   0  0  0  0  0  0  0  0  0  0  0  0
   -7.8140   -1.7890  -21.2150 N   0  0  0  0  0  0  0  0  0  0  0  0
   -6.9470   -1.1500  -20.2930 C   0  0  0  0  0  0  0  0  0  0  0  0
   -5.7780   -0.5120  -20.7510 C   0  0  0  0  0  0  0  0  0  0  0  0
   -5.5050   -0.3030  -22.2180 C   0  0  0  0  0  0  0  0  0  0  0  0
   -4.9150    0.0070  -19.7920 C   0  0  0  0  0  0  0  0  0  0  0  0
   -5.2450   -0.0830  -18.4540 C   0  0  0  0  0  0  0  0  0  0  0  0
   -6.3700   -0.6480  -18.0060 N   0  0  0  0  0  0  0  0  0  0  0  0
   -7.1960   -1.1760  -18.9200 C   0  0  0  0  0  0  0  0  0  0  0  0
  2  1  2  0
  3  2  1  0
  4  3  1  0
  5  4  1  0
  5  6  1  6
  7  5  1  0
  3  8  1  6
  9  2  1  0
 10  9  1  0
 11 10  2  0
 12 11  1  0
 13 11  1  0
 14 13  2  0
 15 14  1  0
 16 15  2  0
 16 10  1  0
M  END
$$$$

     RDKit          3D

 37 40  0  0  0  0  0  0  0  0999 V2000
   -4.9440   -3.0590  -21.6140 O   0  0  0  0  0  0  0  0  0  0  0  0
   -6.0950   -3.3410  -21.8800 C   0  0  0  0  0  0  0  0  0  0  0  0
   -6.3750   -4.7880  -22.1630 C   0  0  0  0  0  0  0  0  0  0  0  0
   -5.4110   -5.7340  -21.8500 N   0  0  0  0  0  0  0  0  0  0  0  0
   -5.9060   -6.8830  -22.2780 C   0  0  0  0  0  0  0  0  0  0  0  0
   -7.1150   -6.7330  -22.8310 N   0  0  0  0  0  0  0  0  0  0  0  0
   -7.4310   -5.4070  -22.7660 C   0  0  0  0  0  0  0  0  0  0  0  0
   -7.0500   -2.3850  -21.9940 N   0  0  0  0  0  0  0  0  0  0  0  0
   -8.3080   -2.5970  -22.6420 C   0  0  0  0  0  0  0  0  0  0  0  0
   -8.3790   -2.6160  -24.0350 C   0  0  0  0  0  0  0  0  0  0  0  0
   -9.6000   -2.7600  -24.6670 C   0  0  0  0  0  0  0  0  0  0  0  0
   -9.4760   -2.7390  -21.8930 C   0  0  0  0  0  0  0  0  0  0  0  0
  -10.7000   -2.8670  -22.5280 C   0  0  0  0  0  0  0  0  0  0  0  0
  -10.7600   -2.8640  -23.9150 C   0  0  0  0  0  0  0  0  0  0  0  0
  -11.8770   -2.9120  -24.7250 O   0  0  0  0  0  0  0  0  0  0  0  0
  -13.1950   -3.1140  -24.1420 C   0  0  2  0  0  0  0  0  0  0  0  0
  -13.9940   -3.7910  -25.2280 C   0  0  0  0  0  0  0  0  0  0  0  0
  -13.7480   -1.7630  -23.7660 C   0  0  0  0  0  0  0  0  0  0  0  0
   -6.7160   -0.9860  -21.6160 C   0  0  2  0  0  0  0  0  0  0  0  0
   -6.0600   -0.7900  -20.2580 C   0  0  0  0  0  0  0  0  0  0  0  0
   -6.6030   -1.3270  -19.0970 C   0  0  0  0  0  0  0  0  0  0  0  0
   -6.2230   -0.9820  -17.8590 N   0  0  0  0  0  0  0  0  0  0  0  0
   -5.2490   -0.0710  -17.7480 C   0  0  0  0  0  0  0  0  0  0  0  0
   -4.6160    0.4970  -18.8340 C   0  0  0  0  0  0  0  0  0  0  0  0
   -5.0260    0.1180  -20.1010 C   0  0  0  0  0  0  0  0  0  0  0  0
   -7.8270    0.0500  -21.8700 C   0  0  0  0  0  0  0  0  0  0  0  0
   -8.7200    0.2330  -21.0510 O   0  0  0  0  0  0  0  0  0  0  0  0
   -7.7240    0.7310  -23.0100 N   0  0  0  0  0  0  0  0  0  0  0  0
   -8.6910    1.7570  -23.3800 C   0  0  0  0  0  0  0  0  0  0  0  0
   -9.9390    1.1580  -24.0190 C   0  0  0  0  0  0  0  0  0  0  0  0
  -10.9450    2.2120  -24.4200 C   0  0  0  0  0  0  0  0  0  0  0  0
  -12.0320    2.4900  -23.5990 C   0  0  0  0  0  0  0  0  0  0  0  0
  -12.8920    3.5010  -23.9560 C   0  0  0  0  0  0  0  0  0  0  0  0
  -13.9570    3.7520  -23.1490 F   0  0  0  0  0  0  0  0  0  0  0  0
  -12.7340    4.2610  -25.0850 C   0  0  0  0  0  0  0  0  0  0  0  0
  -11.6590    3.9740  -25.9110 C   0  0  0  0  0  0  0  0  0  0  0  0
  -10.7740    2.9580  -25.5800 C   0  0  0  0  0  0  0  0  0  0  0  0
  2  1  2  0
  3  2  1  0
  4  3  1  0
  5  4  1  0
  6  5  2  0
  7  6  1  0
  7  3  2  0
  8  2  1  0
  9  8  1  0
 10  9  2  0
 11 10  1  0
 12  9  1  0
 13 12  2  0
 14 13  1  0
 14 11  2  0
 15 14  1  0
 16 15  1  0
 16 17  1  6
 18 16  1  0
 19  8  1  1
 20 19  1  0
 21 20  2  0
 22 21  1  0
 23 22  2  0
 24 23  1  0
 25 20  1  0
 25 24  2  0
 26 19  1  0
 27 26  2  0
 28 26  1  0
 29 28  1  0
 30 29  1  0
 31 30  1  0
 32 31  2  0
 33 32  1  0
 34 33  1  0
 35 33  2  0
 36 35  1  0
 37 36  2  0
 37 31  1  0
M  CHG  1   6   1
M  END
$$$$

     RDKit          3D

 18 19  0  0  0  0  0  0  0  0999 V2000
   -9.4520   -0.7740  -24.5350 C   0  0  0  0  0  0  0  0  0  0  0  0
   -6.1930   -0.5390  -17.6020 N   0  0  0  0  0  0  0  0  0  0  0  0
  -11.6940   -1.8160  -23.3360 C   0  0  0  0  0  0  0  0  0  0  0  0
   -5.0230   -0.1940  -20.1330 C   0  0  0  0  0  0  0  0  0  0  0  0
  -11.8410   -0.8060  -24.2710 C   0  0  0  0  0  0  0  0  0  0  0  0
   -4.4260    0.0560  -21.4940 C   0  0  0  0  0  0  0  0  0  0  0  0
   -9.3070   -1.7510  -23.5590 C   0  0  0  0  0  0  0  0  0  0  0  0
   -4.5590    0.4920  -19.0150 C   0  0  0  0  0  0  0  0  0  0  0  0
   -7.7360   -1.4020  -21.6990 C   0  0  0  0  0  0  0  0  0  0  0  0
   -6.6210   -1.7730  -21.0480 N   0  0  0  0  0  0  0  0  0  0  0  0
   -8.4980   -0.5190  -21.3020 O   0  0  0  0  0  0  0  0  0  0  0  0
   -6.0920   -1.0820  -19.9410 C   0  0  0  0  0  0  0  0  0  0  0  0
   -7.9500   -2.1200  -23.0160 C   0  0  0  0  0  0  0  0  0  0  0  0
   -6.6360   -1.2200  -18.6620 C   0  0  0  0  0  0  0  0  0  0  0  0
  -10.7060   -0.2960  -24.8830 C   0  0  0  0  0  0  0  0  0  0  0  0
  -10.4490   -2.2840  -22.9770 C   0  0  0  0  0  0  0  0  0  0  0  0
   -5.1680    0.3000  -17.7930 C   0  0  0  0  0  0  0  0  0  0  0  0
  -13.3830   -2.7470  -22.5360 I   0  0  0  0  0  0  0  0  0  0  0  0
  5  3  1  0
  6  4  1  0
  7  1  2  0
  8  4  1  0
 10  9  1  0
 11  9  2  0
 12 10  1  0
 12  4  2  0
 13  7  1  0
 13  9  1  0
 14 12  1  0
 14  2  2  0
 15  5  2  0
 15  1  1  0
 16  3  2  0
 16  7  1  0
 17  2  1  0
 17  8  2  0
 18  3  1  0
M  END
$$$$

     RDKit          3D

 21 23  0  0  0  0  0  0  0  0999 V2000
   -8.5990   -0.0970  -21.1760 O   0  0  0  0  0  0  0  0  0  0  0  0
   -7.9850   -1.0910  -21.5700 C   0  0  0  0  0  0  0  0  0  0  0  0
   -8.3470   -1.7930  -22.8620 C   0  0  0  0  0  0  0  0  0  0  0  0
   -9.8390   -1.9120  -23.0200 C   0  0  0  0  0  0  0  0  0  0  0  0
  -10.5580   -2.8850  -22.3360 C   0  0  0  0  0  0  0  0  0  0  0  0
  -11.9270   -2.9400  -22.5110 C   0  0  0  0  0  0  0  0  0  0  0  0
  -10.4250   -1.0150  -23.8310 N   0  0  0  0  0  0  0  0  0  0  0  0
  -11.7550   -1.0790  -23.9880 C   0  0  0  0  0  0  0  0  0  0  0  0
  -12.5240   -2.0410  -23.3580 C   0  0  0  0  0  0  0  0  0  0  0  0
  -14.2210   -2.1930  -23.7080 Cl  0  0  0  0  0  0  0  0  0  0  0  0
   -6.9270   -1.6290  -20.9290 N   0  0  0  0  0  0  0  0  0  0  0  0
   -6.2260   -1.0860  -19.8420 C   0  0  0  0  0  0  0  0  0  0  0  0
   -5.1630   -0.1780  -20.1310 C   0  0  0  0  0  0  0  0  0  0  0  0
   -4.6220    0.0160  -21.4280 C   0  0  0  0  0  0  0  0  0  0  0  0
   -3.6100    0.9100  -21.6390 C   0  0  0  0  0  0  0  0  0  0  0  0
   -3.0930    1.6530  -20.5890 C   0  0  0  0  0  0  0  0  0  0  0  0
   -3.5740    1.4940  -19.3200 C   0  0  0  0  0  0  0  0  0  0  0  0
   -4.6150    0.5710  -19.0540 C   0  0  0  0  0  0  0  0  0  0  0  0
   -5.1330    0.3300  -17.7570 C   0  0  0  0  0  0  0  0  0  0  0  0
   -6.0930   -0.5460  -17.4860 N   0  0  0  0  0  0  0  0  0  0  0  0
   -6.6180   -1.2270  -18.5130 C   0  0  0  0  0  0  0  0  0  0  0  0
  2  1  2  0
  3  2  1  0
  4  3  1  0
  5  4  2  0
  6  5  1  0
  7  4  1  0
  8  7  2  0
  9  8  1  0
  9  6  2  0
 10  9  1  0
 11  2  1  0
 12 11  1  0
 13 12  1  0
 14 13  2  0
 15 14  1  0
 16 15  2  0
 17 16  1  0
 18 17  2  0
 18 13  1  0
 19 18  1  0
 20 19  2  0
 21 20  1  0
 21 12  2  0
M  END
$$$$

     RDKit          3D

 26 28  0  0  0  0  0  0  0  0999 V2000
  -13.9200   -2.7730  -21.7660 Cl  0  0  0  0  0  0  0  0  0  0  0  0
  -12.7020   -2.0190  -22.7520 C   0  0  0  0  0  0  0  0  0  0  0  0
  -13.0830   -1.1060  -23.7160 C   0  0  0  0  0  0  0  0  0  0  0  0
  -12.0980   -0.4990  -24.4790 C   0  0  0  0  0  0  0  0  0  0  0  0
  -10.7610   -0.7900  -24.2490 C   0  0  0  0  0  0  0  0  0  0  0  0
  -11.3770   -2.3270  -22.5230 C   0  0  0  0  0  0  0  0  0  0  0  0
  -10.3850   -1.6860  -23.2570 C   0  0  0  0  0  0  0  0  0  0  0  0
   -8.9320   -1.8890  -22.9010 C   0  0  0  0  0  0  0  0  0  0  0  0
   -8.5330   -1.1200  -21.6580 C   0  0  0  0  0  0  0  0  0  0  0  0
   -8.9960   -0.0070  -21.4060 O   0  0  0  0  0  0  0  0  0  0  0  0
   -7.5800   -1.7230  -20.9110 N   0  0  0  0  0  0  0  0  0  0  0  0
   -6.7440   -1.1430  -19.9380 C   0  0  0  0  0  0  0  0  0  0  0  0
   -6.9990   -1.1540  -18.5660 C   0  0  0  0  0  0  0  0  0  0  0  0
   -6.2930   -0.4830  -17.6450 N   0  0  0  0  0  0  0  0  0  0  0  0
   -5.2680    0.2410  -18.0670 C   0  0  0  0  0  0  0  0  0  0  0  0
   -4.8600    0.3300  -19.4180 C   0  0  0  0  0  0  0  0  0  0  0  0
   -5.6190   -0.3890  -20.3880 C   0  0  0  0  0  0  0  0  0  0  0  0
   -5.1880   -0.3560  -21.7370 C   0  0  0  0  0  0  0  0  0  0  0  0
   -4.0620    0.3160  -22.0990 C   0  0  0  0  0  0  0  0  0  0  0  0
   -3.7060    1.0390  -19.8310 C   0  0  0  0  0  0  0  0  0  0  0  0
   -3.3120    0.9910  -21.1440 C   0  0  0  0  0  0  0  0  0  0  0  0
   -2.0570    1.5250  -21.5350 O   0  0  0  0  0  0  0  0  0  0  0  0
   -1.7830    3.1020  -21.4320 S   0  0  2  0  0  0  0  0  0  0  0  0
   -1.4180    3.3560  -20.0790 O   0  0  0  0  0  0  0  0  0  0  0  0
   -2.9080    3.7670  -21.9940 O   0  0  0  0  0  0  0  0  0  0  0  0
   -0.3950    3.3180  -22.4670 C   0  0  0  0  0  0  0  0  0  0  0  0
  2  1  1  0
  3  2  2  0
  4  3  1  0
  5  4  2  0
  6  2  1  0
  7  6  2  0
  7  5  1  0
  8  7  1  0
  9  8  1  0
 10  9  2  0
 11  9  1  0
 12 11  1  0
 13 12  2  0
 14 13  1  0
 15 14  2  0
 16 15  1  0
 17 12  1  0
 17 16  2  0
 18 17  1  0
 19 18  2  0
 20 16  1  0
 21 19  1  0
 21 20  2  0
 22 21  1  0
 23 22  1  0
 24 23  2  0
 25 23  2  0
 23 26  1  6
M  END
$$$$

     RDKit          3D

 34 38  0  0  0  0  0  0  0  0999 V2000
   -9.1240    0.1950  -21.3530 O   0  0  0  0  0  0  0  0  0  0  0  0
   -8.6960   -0.9050  -21.6760 C   0  0  0  0  0  0  0  0  0  0  0  0
   -7.7750   -1.5310  -20.9160 N   0  0  0  0  0  0  0  0  0  0  0  0
   -6.7410   -1.1080  -20.0650 C   0  0  0  0  0  0  0  0  0  0  0  0
   -5.7360   -0.1760  -20.4910 C   0  0  0  0  0  0  0  0  0  0  0  0
   -5.3940    0.0500  -21.8500 C   0  0  0  0  0  0  0  0  0  0  0  0
   -4.3310    0.8420  -22.1880 C   0  0  0  0  0  0  0  0  0  0  0  0
   -3.5660    1.4600  -21.2060 C   0  0  0  0  0  0  0  0  0  0  0  0
   -3.8640    1.2880  -19.8860 C   0  0  0  0  0  0  0  0  0  0  0  0
   -4.9460    0.4600  -19.4910 C   0  0  0  0  0  0  0  0  0  0  0  0
   -5.2320    0.1650  -18.1400 C   0  0  0  0  0  0  0  0  0  0  0  0
   -6.1620   -0.6860  -17.7450 N   0  0  0  0  0  0  0  0  0  0  0  0
   -6.8670   -1.3130  -18.6940 C   0  0  0  0  0  0  0  0  0  0  0  0
   -9.2790   -1.6620  -22.8950 C   0  0  2  0  0  0  0  0  0  0  0  0
   -8.5850   -1.0260  -24.1240 C   0  0  0  0  0  0  0  0  0  0  0  0
   -9.1700    0.3290  -24.4630 C   0  0  0  0  0  0  0  0  0  0  0  0
  -10.5770    0.2560  -24.7450 O   0  0  0  0  0  0  0  0  0  0  0  0
  -10.7870   -1.4070  -22.9730 C   0  0  0  0  0  0  0  0  0  0  0  0
  -11.3300   -0.4470  -23.8370 C   0  0  0  0  0  0  0  0  0  0  0  0
  -12.6920   -0.1950  -23.8780 C   0  0  0  0  0  0  0  0  0  0  0  0
  -13.5390   -0.9120  -23.0550 C   0  0  0  0  0  0  0  0  0  0  0  0
  -11.6600   -2.1400  -22.1720 C   0  0  0  0  0  0  0  0  0  0  0  0
  -13.0150   -1.8680  -22.2130 C   0  0  0  0  0  0  0  0  0  0  0  0
  -14.0680   -2.6730  -21.0790 Cl  0  0  0  0  0  0  0  0  0  0  0  0
   -9.0430   -3.1930  -22.8800 C   0  0  0  0  0  0  0  0  0  0  0  0
   -9.1770   -3.7950  -24.1950 N   0  0  0  0  0  0  0  0  0  0  0  0
   -8.2410   -4.5740  -24.7240 C   0  0  0  0  0  0  0  0  0  0  0  0
   -7.6430   -5.4440  -24.0920 O   0  0  0  0  0  0  0  0  0  0  0  0
   -7.8730   -4.2280  -26.1560 C   0  0  0  0  0  0  0  0  0  0  0  0
   -8.3590   -5.1710  -27.1550 N   0  0  0  0  0  0  0  0  0  0  0  0
   -9.4380   -5.9690  -27.0630 C   0  0  0  0  0  0  0  0  0  0  0  0
   -9.5790   -6.7390  -28.1210 N   0  0  0  0  0  0  0  0  0  0  0  0
   -8.5310   -6.4020  -28.9420 C   0  0  0  0  0  0  0  0  0  0  0  0
   -7.7740   -5.4420  -28.3690 C   0  0  0  0  0  0  0  0  0  0  0  0
  2  1  2  0
  3  2  1  0
  4  3  1  0
  5  4  1  0
  6  5  2  0
  7  6  1  0
  8  7  2  0
  9  8  1  0
 10  5  1  0
 10  9  2  0
 11 10  1  0
 12 11  2  0
 13 12  1  0
 13  4  2  0
 14  2  1  0
 15 14  1  0
 16 15  1  0
 17 16  1  0
 18 14  1  0
 19 18  2  0
 19 17  1  0
 20 19  1  0
 21 20  2  0
 22 18  1  0
 23 22  2  0
 23 21  1  0
 24 23  1  0
 14 25  1  1
 26 25  1  0
 27 26  1  0
 28 27  2  0
 29 27  1  0
 30 29  1  0
 31 30  1  0
 32 31  2  0
 33 32  1  0
 34 33  2  0
 34 30  1  0
M  END
$$$$

     RDKit          3D

 25 28  0  0  0  0  0  0  0  0999 V2000
   -8.6560   -0.1800  -21.3800 O   0  0  0  0  0  0  0  0  0  0  0  0
   -8.1640   -1.2810  -21.6250 C   0  0  0  0  0  0  0  0  0  0  0  0
   -8.6780   -2.1710  -22.7600 C   0  0  2  0  0  0  0  0  0  0  0  0
   -7.8780   -1.9760  -24.0630 C   0  0  0  0  0  0  0  0  0  0  0  0
   -8.1630   -0.6150  -24.6540 C   0  0  0  0  0  0  0  0  0  0  0  0
   -9.5780   -0.3540  -24.8570 O   0  0  0  0  0  0  0  0  0  0  0  0
  -10.1380   -1.8650  -23.0230 C   0  0  0  0  0  0  0  0  0  0  0  0
  -10.4960   -0.9760  -24.0460 C   0  0  0  0  0  0  0  0  0  0  0  0
  -11.8400   -0.7150  -24.2950 C   0  0  0  0  0  0  0  0  0  0  0  0
  -12.2880    0.2620  -25.6590 Cl  0  0  0  0  0  0  0  0  0  0  0  0
  -12.8350   -1.2990  -23.5390 C   0  0  0  0  0  0  0  0  0  0  0  0
  -11.1490   -2.4720  -22.2790 C   0  0  0  0  0  0  0  0  0  0  0  0
  -12.4710   -2.1760  -22.5420 C   0  0  0  0  0  0  0  0  0  0  0  0
  -13.7130   -2.9180  -21.5730 Cl  0  0  0  0  0  0  0  0  0  0  0  0
   -7.1330   -1.8070  -20.9230 N   0  0  0  0  0  0  0  0  0  0  0  0
   -6.4220   -1.2310  -19.8530 C   0  0  0  0  0  0  0  0  0  0  0  0
   -5.3490   -0.3330  -20.1480 C   0  0  0  0  0  0  0  0  0  0  0  0
   -4.8230   -0.1320  -21.4520 C   0  0  0  0  0  0  0  0  0  0  0  0
   -3.8280    0.7800  -21.6760 C   0  0  0  0  0  0  0  0  0  0  0  0
   -3.3040    1.5300  -20.6300 C   0  0  0  0  0  0  0  0  0  0  0  0
   -3.7650    1.3580  -19.3540 C   0  0  0  0  0  0  0  0  0  0  0  0
   -4.7950    0.4210  -19.0790 C   0  0  0  0  0  0  0  0  0  0  0  0
   -5.3190    0.2040  -17.7820 C   0  0  0  0  0  0  0  0  0  0  0  0
   -6.2900   -0.6520  -17.5010 N   0  0  0  0  0  0  0  0  0  0  0  0
   -6.8130   -1.3470  -18.5190 C   0  0  0  0  0  0  0  0  0  0  0  0
  2  1  2  0
  3  2  1  1
  4  3  1  0
  5  4  1  0
  6  5  1  0
  7  3  1  0
  8  7  2  0
  8  6  1  0
  9  8  1  0
 10  9  1  0
 11  9  2  0
 12  7  1  0
 13 12  2  0
 13 11  1  0
 14 13  1  0
 15  2  1  0
 16 15  1  0
 17 16  1  0
 18 17  2  0
 19 18  1  0
 20 19  2  0
 21 20  1  0
 22 21  2  0
 22 17  1  0
 23 22  1  0
 24 23  2  0
 25 24  1  0
 25 16  2  0
M  END
$$$$

     RDKit          3D

 21 23  0  0  0  0  0  0  0  0999 V2000
   -5.1390   -4.1350  -21.3850 O   0  0  0  0  0  0  0  0  0  0  0  0
   -5.3880   -3.6760  -22.4970 C   0  0  0  0  0  0  0  0  0  0  0  0
   -4.7170   -4.0590  -23.5770 N   0  0  0  0  0  0  0  0  0  0  0  0
   -5.1780   -3.9580  -24.9640 C   0  0  0  0  0  0  0  0  0  0  0  0
   -6.0020   -2.6930  -25.1430 C   0  0  0  0  0  0  0  0  0  0  0  0
   -6.4750   -2.6530  -22.6840 C   0  0  0  0  0  0  0  0  0  0  0  0
   -7.0950   -2.5900  -24.0820 C   0  0  2  0  0  0  0  0  0  0  0  0
   -8.1060   -3.6320  -24.2620 N   0  0  0  0  0  0  0  0  0  0  0  0
   -9.2810   -3.3870  -24.8480 C   0  0  0  0  0  0  0  0  0  0  0  0
   -9.6130   -2.2650  -25.2150 O   0  0  0  0  0  0  0  0  0  0  0  0
  -10.1660   -4.6140  -25.0750 C   0  0  2  0  0  0  0  0  0  0  0  0
   -9.8060   -5.2390  -26.4370 C   0  0  0  0  0  0  0  0  0  0  0  0
  -10.9920   -5.9590  -27.0170 C   0  0  0  0  0  0  0  0  0  0  0  0
  -12.1440   -5.1060  -27.1310 O   0  0  0  0  0  0  0  0  0  0  0  0
  -11.6220   -4.2060  -24.9400 C   0  0  0  0  0  0  0  0  0  0  0  0
  -12.1050   -3.5750  -23.7940 C   0  0  0  0  0  0  0  0  0  0  0  0
  -13.4450   -3.2540  -23.7010 C   0  0  0  0  0  0  0  0  0  0  0  0
  -14.0430   -2.5440  -22.2250 Cl  0  0  0  0  0  0  0  0  0  0  0  0
  -12.5250   -4.4930  -25.9670 C   0  0  0  0  0  0  0  0  0  0  0  0
  -13.8680   -4.1560  -25.8680 C   0  0  0  0  0  0  0  0  0  0  0  0
  -14.3280   -3.5240  -24.7260 C   0  0  0  0  0  0  0  0  0  0  0  0
  2  1  2  0
  3  2  1  0
  4  3  1  0
  5  4  1  0
  6  2  1  0
  7  6  1  0
  7  5  1  0
  7  8  1  6
  9  8  1  0
 10  9  2  0
 11  9  1  6
 12 11  1  0
 13 12  1  0
 14 13  1  0
 15 11  1  0
 16 15  1  0
 17 16  2  0
 18 17  1  0
 19 15  2  0
 19 14  1  0
 20 19  1  0
 21 20  2  0
 21 17  1  0
M  END
$$$$

     RDKit          3D

 31 35  0  0  0  0  0  0  0  0999 V2000
   -9.1790    0.4350  -21.5750 O   0  0  0  0  0  0  0  0  0  0  0  0
   -8.7770   -0.6570  -21.9490 C   0  0  0  0  0  0  0  0  0  0  0  0
   -7.7420   -1.3550  -21.3980 N   0  0  0  0  0  0  0  0  0  0  0  0
   -6.9290   -0.9220  -20.2960 C   0  0  0  0  0  0  0  0  0  0  0  0
   -5.7650   -0.1180  -20.4940 C   0  0  0  0  0  0  0  0  0  0  0  0
   -5.2660    0.2570  -21.7680 C   0  0  0  0  0  0  0  0  0  0  0  0
   -4.1810    1.0740  -21.8870 C   0  0  0  0  0  0  0  0  0  0  0  0
   -3.5360    1.5670  -20.7570 C   0  0  0  0  0  0  0  0  0  0  0  0
   -3.9630    1.2240  -19.5080 C   0  0  0  0  0  0  0  0  0  0  0  0
   -5.0810    0.3700  -19.3390 C   0  0  0  0  0  0  0  0  0  0  0  0
   -5.5810   -0.0070  -18.0660 C   0  0  0  0  0  0  0  0  0  0  0  0
   -6.6460   -0.7750  -17.8850 N   0  0  0  0  0  0  0  0  0  0  0  0
   -7.2860   -1.2110  -18.9810 C   0  0  0  0  0  0  0  0  0  0  0  0
   -7.5200   -2.6520  -22.0580 C   0  0  0  0  0  0  0  0  0  0  0  0
   -8.8240   -2.8970  -22.8110 C   0  0  0  0  0  0  0  0  0  0  0  0
   -9.3360   -1.4720  -23.1280 C   0  0  1  0  0  0  0  0  0  0  0  0
  -10.8700   -1.3840  -23.2260 C   0  0  0  0  0  0  0  0  0  0  0  0
  -11.6770   -2.1640  -22.3990 C   0  0  0  0  0  0  0  0  0  0  0  0
  -13.0290   -1.8920  -22.3220 C   0  0  0  0  0  0  0  0  0  0  0  0
  -13.9970   -2.7530  -21.1610 Cl  0  0  0  0  0  0  0  0  0  0  0  0
  -13.6150   -0.9060  -23.0870 C   0  0  0  0  0  0  0  0  0  0  0  0
  -12.8310   -0.1850  -23.9640 C   0  0  0  0  0  0  0  0  0  0  0  0
  -11.4570   -0.4070  -24.0480 C   0  0  0  0  0  0  0  0  0  0  0  0
  -10.6420    0.3920  -25.0370 C   0  0  0  0  0  0  0  0  0  0  0  0
   -8.7010   -0.9050  -24.4240 C   0  0  0  0  0  0  0  0  0  0  0  0
   -9.2170    0.4390  -24.6790 N   0  0  1  0  0  0  0  0  0  0  0  0
   -8.4490    1.3290  -25.5430 C   0  0  0  0  0  0  0  0  0  0  0  0
   -7.5790    2.3110  -24.7790 C   0  0  0  0  0  0  0  0  0  0  0  0
   -6.4960    2.6700  -25.2320 O   0  0  0  0  0  0  0  0  0  0  0  0
   -8.0310    2.7200  -23.5960 N   0  0  0  0  0  0  0  0  0  0  0  0
   -7.2200    3.5020  -22.6810 C   0  0  0  0  0  0  0  0  0  0  0  0
  2  1  2  0
  3  2  1  0
  4  3  1  0
  5  4  1  0
  6  5  2  0
  7  6  1  0
  8  7  2  0
  9  8  1  0
 10  5  1  0
 10  9  2  0
 11 10  1  0
 12 11  2  0
 13 12  1  0
 13  4  2  0
 14  3  1  0
 15 14  1  0
 16 15  1  1
 16  2  1  0
 17 16  1  0
 18 17  2  0
 19 18  1  0
 20 19  1  0
 21 19  2  0
 22 21  1  0
 23 22  2  0
 23 17  1  0
 24 23  1  0
 25 16  1  0
 26 25  1  0
 26 24  1  0
 26 27  1  6
 28 27  1  0
 29 28  2  0
 30 28  1  0
 31 30  1  0
M  CHG  1  26   1
M  END
$$$$

     RDKit          3D

 22 24  0  0  0  0  0  0  0  0999 V2000
   -9.1420   -0.1290  -21.4940 O   0  0  0  0  0  0  0  0  0  0  0  0
   -8.7450   -1.0660  -22.1730 C   0  0  0  0  0  0  0  0  0  0  0  0
   -7.6290   -1.9640  -21.6360 C   0  0  0  0  0  0  0  0  0  0  0  0
   -7.0150   -1.3930  -20.4540 N   0  0  0  0  0  0  0  0  0  0  0  0
   -5.9280   -0.5770  -20.3530 C   0  0  0  0  0  0  0  0  0  0  0  0
   -5.0550   -0.0280  -21.2800 C   0  0  0  0  0  0  0  0  0  0  0  0
   -4.0820    0.8460  -20.8110 C   0  0  0  0  0  0  0  0  0  0  0  0
   -3.9860    1.1480  -19.4540 C   0  0  0  0  0  0  0  0  0  0  0  0
   -4.8570    0.5810  -18.5330 C   0  0  0  0  0  0  0  0  0  0  0  0
   -5.8460   -0.2840  -18.9960 C   0  0  0  0  0  0  0  0  0  0  0  0
   -6.8710   -0.9310  -18.3430 N   0  0  0  0  0  0  0  0  0  0  0  0
   -7.5620   -1.5940  -19.2290 N   0  0  0  0  0  0  0  0  0  0  0  0
   -9.1890   -1.2560  -23.4340 N   0  0  0  0  0  0  0  0  0  0  0  0
   -9.1220   -0.1030  -24.3250 C   0  0  0  0  0  0  0  0  0  0  0  0
   -9.8030   -2.4630  -24.0420 C   0  0  1  0  0  0  0  0  0  0  0  0
   -9.0230   -3.7310  -23.7110 C   0  0  0  0  0  0  0  0  0  0  0  0
  -11.2890   -2.4980  -23.7210 C   0  0  0  0  0  0  0  0  0  0  0  0
  -12.2310   -2.3910  -24.7350 C   0  0  0  0  0  0  0  0  0  0  0  0
  -13.5830   -2.4630  -24.4520 C   0  0  0  0  0  0  0  0  0  0  0  0
  -14.0110   -2.6430  -23.1580 C   0  0  0  0  0  0  0  0  0  0  0  0
  -13.0910   -2.7390  -22.1420 C   0  0  0  0  0  0  0  0  0  0  0  0
  -11.7370   -2.6660  -22.4200 C   0  0  0  0  0  0  0  0  0  0  0  0
  2  1  2  0
  3  2  1  0
  4  3  1  0
  5  4  1  0
  6  5  2  0
  7  6  1  0
  8  7  2  0
  9  8  1  0
 10  5  1  0
 10  9  2  0
 11 10  1  0
 12 11  2  0
 12  4  1  0
 13  2  1  0
 14 13  1  0
 15 13  1  0
 15 16  1  1
 17 15  1  0
 18 17  2  0
 19 18  1  0
 20 19  2  0
 21 20  1  0
 22 21  2  0
 22 17  1  0
M  END
$$$$

     RDKit          3D

 18 19  0  0  0  0  0  0  0  0999 V2000
  -10.6790   -1.0910  -24.1380 C   0  0  0  0  0  0  0  0  0  0  0  0
  -13.5140   -2.8270  -21.7510 F   0  0  0  0  0  0  0  0  0  0  0  0
   -6.3510   -0.4630  -17.8190 N   0  0  0  0  0  0  0  0  0  0  0  0
  -12.5720   -2.2360  -22.5440 C   0  0  0  0  0  0  0  0  0  0  0  0
   -5.3150   -0.1840  -20.4170 C   0  0  0  0  0  0  0  0  0  0  0  0
  -12.9890   -1.3830  -23.5350 C   0  0  0  0  0  0  0  0  0  0  0  0
   -4.8090    0.0650  -21.8150 C   0  0  0  0  0  0  0  0  0  0  0  0
  -10.2800   -1.9440  -23.1160 C   0  0  0  0  0  0  0  0  0  0  0  0
   -4.7030    0.4170  -19.3250 C   0  0  0  0  0  0  0  0  0  0  0  0
   -8.3340   -1.2880  -21.7030 C   0  0  0  0  0  0  0  0  0  0  0  0
   -7.1160   -1.6070  -21.2350 N   0  0  0  0  0  0  0  0  0  0  0  0
   -8.9990   -0.3390  -21.2900 O   0  0  0  0  0  0  0  0  0  0  0  0
   -6.4600   -0.9590  -20.1660 C   0  0  0  0  0  0  0  0  0  0  0  0
   -8.8150   -2.1790  -22.8310 C   0  0  0  0  0  0  0  0  0  0  0  0
   -6.9340   -1.0670  -18.8590 C   0  0  0  0  0  0  0  0  0  0  0  0
  -12.0220   -0.8200  -24.3520 C   0  0  0  0  0  0  0  0  0  0  0  0
  -11.2520   -2.5360  -22.3150 C   0  0  0  0  0  0  0  0  0  0  0  0
   -5.2440    0.2540  -18.0640 C   0  0  0  0  0  0  0  0  0  0  0  0
  4  2  1  0
  6  4  1  0
  7  5  1  0
  8  1  2  0
  9  5  1  0
 11 10  1  0
 12 10  2  0
 13 11  1  0
 13  5  2  0
 14  8  1  0
 14 10  1  0
 15 13  1  0
 15  3  2  0
 16  6  2  0
 16  1  1  0
 17  4  2  0
 17  8  1  0
 18  3  1  0
 18  9  2  0
M  END
$$$$

     RDKit          3D

 37 42  0  0  0  0  0  0  0  0999 V2000
   -9.1870    0.2060  -21.1460 O   0  0  0  0  0  0  0  0  0  0  0  0
   -8.6550   -0.7550  -21.6810 C   0  0  0  0  0  0  0  0  0  0  0  0
   -7.4610   -1.2570  -21.2700 N   0  0  0  0  0  0  0  0  0  0  0  0
   -6.6810   -0.8310  -20.1690 C   0  0  0  0  0  0  0  0  0  0  0  0
   -5.5480    0.0170  -20.4030 C   0  0  0  0  0  0  0  0  0  0  0  0
   -5.0560    0.3430  -21.6960 C   0  0  0  0  0  0  0  0  0  0  0  0
   -3.9890    1.1860  -21.8490 C   0  0  0  0  0  0  0  0  0  0  0  0
   -3.3610    1.7420  -20.7420 C   0  0  0  0  0  0  0  0  0  0  0  0
   -3.7900    1.4510  -19.4790 C   0  0  0  0  0  0  0  0  0  0  0  0
   -4.8880    0.5770  -19.2730 C   0  0  0  0  0  0  0  0  0  0  0  0
   -5.3710    0.2340  -17.9880 C   0  0  0  0  0  0  0  0  0  0  0  0
   -6.3950   -0.5780  -17.7680 N   0  0  0  0  0  0  0  0  0  0  0  0
   -7.0200   -1.0880  -18.8380 C   0  0  0  0  0  0  0  0  0  0  0  0
   -9.3100   -1.4350  -22.9100 C   0  0  1  0  0  0  0  0  0  0  0  0
  -10.8160   -1.1080  -22.9480 C   0  0  0  0  0  0  0  0  0  0  0  0
  -11.7260   -1.8410  -22.1830 C   0  0  0  0  0  0  0  0  0  0  0  0
  -13.0700   -1.5110  -22.2150 C   0  0  0  0  0  0  0  0  0  0  0  0
  -14.1920   -2.4430  -21.2550 Cl  0  0  0  0  0  0  0  0  0  0  0  0
  -13.5450   -0.4610  -22.9710 C   0  0  0  0  0  0  0  0  0  0  0  0
  -12.6620    0.2660  -23.7510 C   0  0  0  0  0  0  0  0  0  0  0  0
  -11.3160   -0.0670  -23.7480 C   0  0  0  0  0  0  0  0  0  0  0  0
  -10.5340    0.6440  -24.6260 O   0  0  0  0  0  0  0  0  0  0  0  0
   -9.1210    0.6370  -24.3540 C   0  0  0  0  0  0  0  0  0  0  0  0
   -8.6010   -0.7640  -24.1070 C   0  0  0  0  0  0  0  0  0  0  0  0
   -9.1180   -2.9740  -22.9370 C   0  0  0  0  0  0  0  0  0  0  0  0
   -9.6190   -3.6500  -24.1970 C   0  0  0  0  0  0  0  0  0  0  0  0
  -10.4520   -3.1450  -24.9390 O   0  0  0  0  0  0  0  0  0  0  0  0
   -9.1050   -4.8550  -24.5100 N   0  0  0  0  0  0  0  0  0  0  0  0
   -9.8360   -5.8660  -25.3000 C   0  0  1  0  0  0  0  0  0  0  0  0
   -9.4120   -5.6810  -26.7540 C   0  0  0  0  0  0  0  0  0  0  0  0
   -7.7450   -5.3590  -24.3190 C   0  0  0  0  0  0  0  0  0  0  0  0
   -7.7020   -6.4950  -25.3390 C   0  0  1  0  0  0  0  0  0  0  0  0
   -9.0460   -7.1410  -24.9940 C   0  0  0  0  0  0  0  0  0  0  0  0
   -7.9740   -5.9560  -26.6900 N   0  0  0  0  0  0  0  0  0  0  0  0
   -7.0820   -5.7140  -27.6820 C   0  0  0  0  0  0  0  0  0  0  0  0
   -7.3590   -5.9940  -28.8440 O   0  0  0  0  0  0  0  0  0  0  0  0
   -5.7870   -5.0470  -27.3160 C   0  0  0  0  0  0  0  0  0  0  0  0
  2  1  2  0
  3  2  1  0
  4  3  1  0
  5  4  1  0
  6  5  2  0
  7  6  1  0
  8  7  2  0
  9  8  1  0
 10  5  1  0
 10  9  2  0
 11 10  1  0
 12 11  2  0
 13 12  1  0
 13  4  2  0
 14  2  1  0
 15 14  1  0
 16 15  2  0
 17 16  1  0
 18 17  1  0
 19 17  2  0
 20 19  1  0
 21 20  2  0
 21 15  1  0
 22 21  1  0
 23 22  1  0
 24 23  1  0
 24 14  1  0
 14 25  1  1
 26 25  1  0
 27 26  2  0
 28 26  1  0
 29 28  1  0
 29 30  1  6
 31 28  1  0
 32 31  1  1
 33 32  1  0
 33 29  1  0
 34 32  1  0
 34 30  1  0
 35 34  1  0
 36 35  2  0
 37 35  1  0
M  END
$$$$

     RDKit          3D

 18 19  0  0  0  0  0  0  0  0999 V2000
   -7.4430   -1.4300  -21.5580 N   0  0  0  0  0  0  0  0  0  0  0  0
   -5.3670    0.0480  -18.2850 C   0  0  0  0  0  0  0  0  0  0  0  0
   -8.9710   -1.2000  -23.4330 C   0  0  1  0  0  0  0  0  0  0  0  0
   -8.5510   -0.8150  -22.0190 C   0  0  0  0  0  0  0  0  0  0  0  0
  -10.5050   -1.4280  -23.5010 C   0  0  2  0  0  0  0  0  0  0  0  0
  -12.5330   -2.6710  -22.6120 C   0  0  0  0  0  0  0  0  0  0  0  0
  -13.0020   -2.9700  -24.0310 C   0  0  0  0  0  0  0  0  0  0  0  0
  -12.5280   -1.8900  -24.9880 C   0  0  0  0  0  0  0  0  0  0  0  0
   -5.5310   -0.1670  -20.6660 C   0  0  0  0  0  0  0  0  0  0  0  0
   -7.1110   -1.1570  -19.1370 C   0  0  0  0  0  0  0  0  0  0  0  0
   -6.6950   -0.9440  -20.4510 C   0  0  0  0  0  0  0  0  0  0  0  0
   -4.8600    0.3080  -19.5450 C   0  0  0  0  0  0  0  0  0  0  0  0
   -5.0600    0.2110  -22.0470 C   0  0  0  0  0  0  0  0  0  0  0  0
   -8.5040   -0.0650  -24.3470 C   0  0  0  0  0  0  0  0  0  0  0  0
   -6.4770   -0.6630  -18.0680 N   0  0  0  0  0  0  0  0  0  0  0  0
   -9.1280    0.0710  -21.4070 O   0  0  0  0  0  0  0  0  0  0  0  0
  -11.0120   -2.5170  -22.5450 C   0  0  0  0  0  0  0  0  0  0  0  0
  -11.0080   -1.7160  -24.9260 C   0  0  0  0  0  0  0  0  0  0  0  0
  4  3  1  0
  4  1  1  0
  5  3  1  0
  7  6  1  0
  8  7  1  0
 11 10  1  0
 11  9  2  0
 11  1  1  0
 12  9  1  0
 12  2  2  0
 13  9  1  0
  3 14  1  6
 15 10  2  0
 15  2  1  0
 16  4  2  0
 17  6  1  0
  5 17  1  1
 18  8  1  0
 18  5  1  0
M  END
$$$$

     RDKit          3D

 19 20  0  0  0  0  0  0  0  0999 V2000
   -4.9660   -6.6230  -24.5240 N   0  0  0  0  0  0  0  0  0  0  0  0
   -2.4920   -2.9980  -25.9990 C   0  0  0  0  0  0  0  0  0  0  0  0
   -3.4820   -7.8430  -26.0610 O   0  0  0  0  0  0  0  0  0  0  0  0
   -1.1450   -3.2460  -25.8860 C   0  0  0  0  0  0  0  0  0  0  0  0
   -6.2070   -5.5250  -20.7870 C   0  0  0  0  0  0  0  0  0  0  0  0
   -7.4990   -4.7730  -20.6100 C   0  0  0  0  0  0  0  0  0  0  0  0
   -0.7380   -4.5630  -25.8050 C   0  0  0  0  0  0  0  0  0  0  0  0
   -1.6680   -5.5910  -25.8290 C   0  0  0  0  0  0  0  0  0  0  0  0
   -3.0190   -5.2980  -25.9390 C   0  0  0  0  0  0  0  0  0  0  0  0
   -3.4490   -3.9860  -26.0270 C   0  0  0  0  0  0  0  0  0  0  0  0
   -6.0350   -5.6320  -24.3230 C   0  0  0  0  0  0  0  0  0  0  0  0
   -6.8750   -6.0310  -23.1370 C   0  0  0  0  0  0  0  0  0  0  0  0
   -4.9790   -7.1850  -22.1680 C   0  0  0  0  0  0  0  0  0  0  0  0
   -4.1170   -6.7660  -23.3290 C   0  0  0  0  0  0  0  0  0  0  0  0
   -2.9060   -1.7140  -26.0800 F   0  0  0  0  0  0  0  0  0  0  0  0
   -6.0340   -6.1970  -21.9510 N   0  0  0  0  0  0  0  0  0  0  0  0
   -5.1900   -6.2930  -26.9540 O   0  0  0  0  0  0  0  0  0  0  0  0
   -5.3710   -5.5250  -19.8940 O   0  0  0  0  0  0  0  0  0  0  0  0
   -4.2020   -6.6110  -25.9730 S   0  0  2  0  0  0  0  0  0  0  0  0
  4  2  2  0
  6  5  1  0
  7  4  1  0
  8  7  2  0
  9  8  1  0
 10  9  2  0
 10  2  1  0
 11  1  1  0
 12 11  1  0
 14 13  1  0
 14  1  1  0
 15  2  1  0
 16 12  1  0
 16  5  1  0
 16 13  1  0
 18  5  2  0
 19 17  2  0
 19  3  2  0
 19  1  1  1
 19  9  1  0
M  END
$$$$

     RDKit          3D

 23 25  0  0  0  0  0  0  0  0999 V2000
   -5.3110   -1.5840  -20.1430 C   0  0  0  0  0  0  0  0  0  0  0  0
   -5.4860   -2.7520  -21.0790 C   0  0  0  0  0  0  0  0  0  0  0  0
   -7.1050   -1.4420  -22.5050 C   0  0  0  0  0  0  0  0  0  0  0  0
   -8.5780   -1.8310  -22.5580 C   0  0  0  0  0  0  0  0  0  0  0  0
   -7.9790   -4.1250  -23.1260 C   0  0  0  0  0  0  0  0  0  0  0  0
   -6.5030   -3.7500  -23.0560 C   0  0  0  0  0  0  0  0  0  0  0  0
  -10.0950   -3.1790  -23.9420 C   0  0  0  0  0  0  0  0  0  0  0  0
   -4.8400   -3.7780  -20.8030 O   0  0  0  0  0  0  0  0  0  0  0  0
  -11.1900   -2.3630  -23.5900 C   0  0  0  0  0  0  0  0  0  0  0  0
  -12.4710   -2.6300  -24.0850 C   0  0  0  0  0  0  0  0  0  0  0  0
  -12.6570   -3.7200  -24.9340 C   0  0  0  0  0  0  0  0  0  0  0  0
  -11.5920   -4.5390  -25.2960 C   0  0  0  0  0  0  0  0  0  0  0  0
  -10.3270   -4.2670  -24.8030 C   0  0  0  0  0  0  0  0  0  0  0  0
   -4.0890    0.5010  -19.8750 C   0  0  0  0  0  0  0  0  0  0  0  0
   -5.7210   -0.2720  -18.1600 C   0  0  0  0  0  0  0  0  0  0  0  0
   -5.9770   -1.4340  -18.9750 C   0  0  0  0  0  0  0  0  0  0  0  0
   -4.4050   -0.6450  -20.5790 N   0  0  0  0  0  0  0  0  0  0  0  0
   -4.7710    0.6340  -18.6740 N   0  0  0  0  0  0  0  0  0  0  0  0
   -6.3140   -2.6240  -22.1360 N   0  0  0  0  0  0  0  0  0  0  0  0
   -8.7790   -2.9580  -23.4860 N   0  0  0  0  0  0  0  0  0  0  0  0
   -3.2750    1.3190  -20.2930 O   0  0  0  0  0  0  0  0  0  0  0  0
   -6.2820   -0.0600  -17.0910 O   0  0  0  0  0  0  0  0  0  0  0  0
  -14.2560   -4.1020  -25.5920 Cl  0  0  0  0  0  0  0  0  0  0  0  0
  2  1  1  0
  4  3  1  0
  6  5  1  0
  8  2  2  0
  9  7  2  0
 10  9  1  0
 11 10  2  0
 12 11  1  0
 13 12  2  0
 13  7  1  0
 16 15  1  0
 16  1  2  0
 17 14  1  0
 17  1  1  0
 18 15  1  0
 18 14  1  0
 19  6  1  0
 19  3  1  0
 19  2  1  0
 20  7  1  0
 20  5  1  0
 20  4  1  0
 21 14  2  0
 22 15  2  0
 23 11  1  0
M  END
$$$$

     RDKit          3D

 26 30  0  0  0  0  0  0  0  0999 V2000
   -9.0850    0.3230  -21.3900 O   0  0  0  0  0  0  0  0  0  0  0  0
   -8.5840   -0.6850  -21.8530 C   0  0  0  0  0  0  0  0  0  0  0  0
   -9.0780   -1.4510  -23.0820 C   0  0  1  0  0  0  0  0  0  0  0  0
  -10.5750   -1.5290  -23.1560 C   0  0  0  0  0  0  0  0  0  0  0  0
  -11.4860   -2.2580  -22.4010 C   0  0  0  0  0  0  0  0  0  0  0  0
  -12.8330   -1.9820  -22.5530 C   0  0  0  0  0  0  0  0  0  0  0  0
  -13.9870   -2.8240  -21.5490 Cl  0  0  0  0  0  0  0  0  0  0  0  0
  -13.2870   -1.0310  -23.4550 C   0  0  0  0  0  0  0  0  0  0  0  0
  -12.3740   -0.3340  -24.2310 C   0  0  0  0  0  0  0  0  0  0  0  0
  -11.0240   -0.5950  -24.0730 C   0  0  0  0  0  0  0  0  0  0  0  0
  -10.0040   -0.0260  -24.8080 O   0  0  0  0  0  0  0  0  0  0  0  0
   -8.7670   -0.6730  -24.3830 C   0  0  0  0  0  0  0  0  0  0  0  0
   -8.4330   -2.8420  -22.8950 C   0  0  0  0  0  0  0  0  0  0  0  0
   -7.1780   -2.5760  -22.0720 C   0  0  0  0  0  0  0  0  0  0  0  0
   -7.4860   -1.3270  -21.3590 N   0  0  0  0  0  0  0  0  0  0  0  0
   -6.6960   -0.8780  -20.2520 C   0  0  0  0  0  0  0  0  0  0  0  0
   -7.0450   -1.1680  -18.9370 C   0  0  0  0  0  0  0  0  0  0  0  0
   -6.4140   -0.6960  -17.8520 N   0  0  0  0  0  0  0  0  0  0  0  0
   -5.3680    0.0950  -18.0500 C   0  0  0  0  0  0  0  0  0  0  0  0
   -5.5740   -0.0260  -20.4690 C   0  0  0  0  0  0  0  0  0  0  0  0
   -5.1400    0.3830  -21.7540 C   0  0  0  0  0  0  0  0  0  0  0  0
   -4.0890    1.2350  -21.8510 C   0  0  0  0  0  0  0  0  0  0  0  0
   -3.7240    1.6630  -23.0860 F   0  0  0  0  0  0  0  0  0  0  0  0
   -4.8890    0.4730  -19.3270 C   0  0  0  0  0  0  0  0  0  0  0  0
   -3.7900    1.3470  -19.5130 C   0  0  0  0  0  0  0  0  0  0  0  0
   -3.3990    1.7190  -20.7640 C   0  0  0  0  0  0  0  0  0  0  0  0
  2  1  2  0
  3  2  1  0
  4  3  1  0
  5  4  2  0
  6  5  1  0
  7  6  1  0
  8  6  2  0
  9  8  1  0
 10  9  2  0
 10  4  1  0
 11 10  1  0
 12 11  1  0
  3 12  1  6
 13  3  1  0
 14 13  1  0
 15 14  1  0
 15  2  1  0
 16 15  1  0
 17 16  2  0
 18 17  1  0
 19 18  2  0
 20 16  1  0
 21 20  2  0
 22 21  1  0
 23 22  1  0
 24 20  1  0
 24 19  1  0
 25 24  2  0
 26 22  2  0
 26 25  1  0
M  END
$$$$

     RDKit          3D

 27 30  0  0  0  0  0  0  0  0999 V2000
  -13.8180   -2.7710  -21.6880 Cl  0  0  0  0  0  0  0  0  0  0  0  0
  -12.5310   -2.0330  -22.6060 C   0  0  0  0  0  0  0  0  0  0  0  0
  -11.2260   -2.3850  -22.3280 C   0  0  0  0  0  0  0  0  0  0  0  0
  -12.8360   -1.0840  -23.5580 C   0  0  0  0  0  0  0  0  0  0  0  0
  -11.8070   -0.4810  -24.2590 C   0  0  0  0  0  0  0  0  0  0  0  0
  -10.4730   -0.8050  -24.0020 C   0  0  0  0  0  0  0  0  0  0  0  0
   -9.3870   -0.1630  -24.8410 C   0  0  0  0  0  0  0  0  0  0  0  0
   -8.0350   -0.4450  -24.3340 N   0  0  0  0  0  0  0  0  0  0  0  0
   -6.9150    0.1990  -25.0320 C   0  0  0  0  0  0  0  0  0  0  0  0
   -5.8510   -0.4310  -25.1600 O   0  0  0  0  0  0  0  0  0  0  0  0
   -7.0740    1.4440  -25.4960 N   0  0  0  0  0  0  0  0  0  0  0  0
  -10.1820   -1.7600  -23.0130 C   0  0  0  0  0  0  0  0  0  0  0  0
   -8.7410   -2.1030  -22.6990 C   0  0  1  0  0  0  0  0  0  0  0  0
   -7.8670   -1.8400  -23.9240 C   0  0  0  0  0  0  0  0  0  0  0  0
   -8.2800   -1.2160  -21.5410 C   0  0  0  0  0  0  0  0  0  0  0  0
   -8.8570   -0.1630  -21.2490 O   0  0  0  0  0  0  0  0  0  0  0  0
   -7.1730   -1.6600  -20.8970 N   0  0  0  0  0  0  0  0  0  0  0  0
   -6.4590   -1.0130  -19.8730 C   0  0  0  0  0  0  0  0  0  0  0  0
   -5.3780   -0.1500  -20.2340 C   0  0  0  0  0  0  0  0  0  0  0  0
   -4.9360    0.0460  -21.5690 C   0  0  0  0  0  0  0  0  0  0  0  0
   -3.8970    0.8900  -21.8480 C   0  0  0  0  0  0  0  0  0  0  0  0
   -3.2420    1.5720  -20.8280 C   0  0  0  0  0  0  0  0  0  0  0  0
   -3.6300    1.4150  -19.5280 C   0  0  0  0  0  0  0  0  0  0  0  0
   -4.7070    0.5550  -19.1950 C   0  0  0  0  0  0  0  0  0  0  0  0
   -5.1570    0.3550  -17.8660 C   0  0  0  0  0  0  0  0  0  0  0  0
   -6.1550   -0.4490  -17.5290 N   0  0  0  0  0  0  0  0  0  0  0  0
   -6.7770   -1.1080  -18.5150 C   0  0  0  0  0  0  0  0  0  0  0  0
  2  1  1  0
  3  2  2  0
  4  2  1  0
  5  4  2  0
  6  5  1  0
  7  6  1  0
  8  7  1  0
  9  8  1  0
 10  9  2  0
 11  9  1  0
 12  3  1  0
 12  6  2  0
 13 12  1  0
 14 13  1  0
 14  8  1  0
 13 15  1  1
 16 15  2  0
 17 15  1  0
 18 17  1  0
 19 18  1  0
 20 19  2  0
 21 20  1  0
 22 21  2  0
 23 22  1  0
 24 23  2  0
 24 19  1  0
 25 24  1  0
 26 25  2  0
 27 26  1  0
 27 18  2  0
M  END
$$$$

     RDKit          3D

 26 29  0  0  0  0  0  0  0  0999 V2000
   -9.2610    0.2770  -21.3940 O   0  0  0  0  0  0  0  0  0  0  0  0
   -8.7720   -0.7510  -21.8520 C   0  0  0  0  0  0  0  0  0  0  0  0
   -7.6350   -1.3060  -21.3700 N   0  0  0  0  0  0  0  0  0  0  0  0
   -6.8630   -0.7890  -20.2980 C   0  0  0  0  0  0  0  0  0  0  0  0
   -5.7410    0.0360  -20.5190 C   0  0  0  0  0  0  0  0  0  0  0  0
   -5.4030    0.5070  -21.9160 C   0  0  0  0  0  0  0  0  0  0  0  0
   -4.0100    1.1240  -22.0420 C   0  0  0  0  0  0  0  0  0  0  0  0
   -3.6870    2.0500  -20.8850 C   0  0  0  0  0  0  0  0  0  0  0  0
   -3.7600    1.3090  -19.5650 C   0  0  0  0  0  0  0  0  0  0  0  0
   -5.0130    0.4830  -19.4030 C   0  0  0  0  0  0  0  0  0  0  0  0
   -5.4670    0.1190  -18.1480 C   0  0  0  0  0  0  0  0  0  0  0  0
   -6.5470   -0.6350  -17.9190 N   0  0  0  0  0  0  0  0  0  0  0  0
   -7.2240   -1.0850  -18.9840 C   0  0  0  0  0  0  0  0  0  0  0  0
   -9.3980   -1.4940  -23.0360 C   0  0  1  0  0  0  0  0  0  0  0  0
  -10.9090   -1.3750  -23.1320 C   0  0  0  0  0  0  0  0  0  0  0  0
  -11.7140   -2.1490  -22.2940 C   0  0  0  0  0  0  0  0  0  0  0  0
  -13.0740   -1.9110  -22.2280 C   0  0  0  0  0  0  0  0  0  0  0  0
  -14.0440   -2.8560  -21.1330 Cl  0  0  0  0  0  0  0  0  0  0  0  0
   -8.7210   -1.0640  -24.3470 C   0  0  0  0  0  0  0  0  0  0  0  0
   -9.1110    0.3300  -24.6150 N   0  0  0  0  0  0  0  0  0  0  0  0
  -10.6410    0.4520  -25.1640 S   0  0  1  0  0  0  0  0  0  0  0  0
  -11.0160    1.8310  -25.1280 O   0  0  0  0  0  0  0  0  0  0  0  0
  -10.7190   -0.2540  -26.4080 O   0  0  0  0  0  0  0  0  0  0  0  0
  -11.5440   -0.4270  -23.9440 C   0  0  0  0  0  0  0  0  0  0  0  0
  -12.9110   -0.1910  -23.8640 C   0  0  0  0  0  0  0  0  0  0  0  0
  -13.6790   -0.9310  -22.9840 C   0  0  0  0  0  0  0  0  0  0  0  0
  2  1  2  0
  3  2  1  0
  4  3  1  0
  5  4  1  0
  6  5  1  0
  7  6  1  0
  8  7  1  0
  9  8  1  0
 10  5  2  0
 10  9  1  0
 11 10  1  0
 12 11  2  0
 13 12  1  0
 13  4  2  0
 14  2  1  1
 15 14  1  0
 16 15  2  0
 17 16  1  0
 18 17  1  0
 19 14  1  0
 20 19  1  0
 21 20  1  1
 22 21  2  0
 23 21  2  0
 24 15  1  0
 24 21  1  0
 25 24  2  0
 26 25  1  0
 26 17  2  0
M  END
$$$$

     RDKit          3D

 27 29  0  0  0  0  0  0  0  0999 V2000
   -6.0220   -1.4660  -18.9850 C   0  0  0  0  0  0  0  0  0  0  0  0
   -6.4520   -4.0040  -22.9870 C   0  0  0  0  0  0  0  0  0  0  0  0
  -10.0120   -3.4500  -23.8880 C   0  0  0  0  0  0  0  0  0  0  0  0
   -7.0190   -1.6200  -22.4210 C   0  0  0  0  0  0  0  0  0  0  0  0
   -8.4730   -1.8520  -22.8480 C   0  0  0  0  0  0  0  0  0  0  0  0
   -7.6250   -3.8480  -23.9260 C   0  0  0  0  0  0  0  0  0  0  0  0
   -5.3310   -1.6490  -20.1380 C   0  0  0  0  0  0  0  0  0  0  0  0
  -10.1820   -4.4140  -24.9000 C   0  0  0  0  0  0  0  0  0  0  0  0
  -11.4200   -4.6160  -25.5080 C   0  0  0  0  0  0  0  0  0  0  0  0
  -12.5250   -3.8660  -25.1250 C   0  0  0  0  0  0  0  0  0  0  0  0
  -12.3940   -2.8940  -24.1160 C   0  0  0  0  0  0  0  0  0  0  0  0
  -11.1480   -2.6950  -23.5110 C   0  0  0  0  0  0  0  0  0  0  0  0
   -4.1540    0.4670  -19.9420 C   0  0  0  0  0  0  0  0  0  0  0  0
   -5.4640   -2.8650  -21.0180 C   0  0  0  0  0  0  0  0  0  0  0  0
   -5.7980   -0.2600  -18.2130 C   0  0  0  0  0  0  0  0  0  0  0  0
  -13.5740   -2.0600  -23.6650 C   0  0  1  0  0  0  0  0  0  0  0  0
  -14.1060   -1.3390  -24.6770 F   0  0  0  0  0  0  0  0  0  0  0  0
  -14.5680   -2.8180  -23.1350 F   0  0  0  0  0  0  0  0  0  0  0  0
  -13.2550   -1.1660  -22.7060 F   0  0  0  0  0  0  0  0  0  0  0  0
   -4.4320   -0.7170  -20.6010 N   0  0  0  0  0  0  0  0  0  0  0  0
   -4.8590    0.6320  -18.7550 N   0  0  0  0  0  0  0  0  0  0  0  0
   -6.2670   -2.8470  -22.0970 N   0  0  0  0  0  0  0  0  0  0  0  0
   -8.7700   -3.2330  -23.2560 N   0  0  0  0  0  0  0  0  0  0  0  0
   -3.3510    1.2910  -20.3790 O   0  0  0  0  0  0  0  0  0  0  0  0
   -6.3780    0.0030  -17.1610 O   0  0  0  0  0  0  0  0  0  0  0  0
   -4.8020   -3.8600  -20.6730 O   0  0  0  0  0  0  0  0  0  0  0  0
  -14.0650   -4.1840  -25.9390 Cl  0  0  0  0  0  0  0  0  0  0  0  0
  5  4  1  0
  6  2  1  0
  7  1  2  0
  8  3  2  0
  9  8  1  0
 10  9  2  0
 11 10  1  0
 12 11  2  0
 12  3  1  0
 14  7  1  0
 15  1  1  0
 16 11  1  0
 16 17  1  6
 18 16  1  0
 19 16  1  0
 20 13  1  0
 20  7  1  0
 21 15  1  0
 21 13  1  0
 22  4  1  0
 22  2  1  0
 22 14  1  0
 23  6  1  0
 23  5  1  0
 23  3  1  0
 24 13  2  0
 25 15  2  0
 26 14  2  0
 27 10  1  0
M  END
$$$$

     RDKit          3D

 29 32  0  0  0  0  0  0  0  0999 V2000
   -9.1630    0.1120  -21.1480 O   0  0  0  0  0  0  0  0  0  0  0  0
   -8.6920   -0.9250  -21.5910 C   0  0  0  0  0  0  0  0  0  0  0  0
   -9.2890   -1.5820  -22.8600 C   0  0  1  0  0  0  0  0  0  0  0  0
  -10.7990   -1.3710  -22.9580 C   0  0  0  0  0  0  0  0  0  0  0  0
  -11.6690   -2.1720  -22.2180 C   0  0  0  0  0  0  0  0  0  0  0  0
  -13.0200   -1.8880  -22.2230 C   0  0  0  0  0  0  0  0  0  0  0  0
  -14.0650   -2.7610  -21.1320 Cl  0  0  0  0  0  0  0  0  0  0  0  0
  -13.5460   -0.8600  -22.9760 C   0  0  0  0  0  0  0  0  0  0  0  0
  -12.6970   -0.0700  -23.7310 C   0  0  0  0  0  0  0  0  0  0  0  0
  -11.3360   -0.3340  -23.7210 C   0  0  0  0  0  0  0  0  0  0  0  0
  -10.6090    0.3380  -24.6710 O   0  0  0  0  0  0  0  0  0  0  0  0
   -9.3770   -0.2990  -25.0650 C   0  0  0  0  0  0  0  0  0  0  0  0
   -8.5110   -0.7470  -23.9090 C   0  0  0  0  0  0  0  0  0  0  0  0
   -9.0080   -3.1060  -22.9280 C   0  0  0  0  0  0  0  0  0  0  0  0
   -7.6990   -3.4700  -23.5950 C   0  0  0  0  0  0  0  0  0  0  0  0
   -6.6160   -3.2630  -23.0490 O   0  0  0  0  0  0  0  0  0  0  0  0
   -7.7980   -4.0600  -24.7810 N   0  0  0  0  0  0  0  0  0  0  0  0
   -6.6370   -4.5380  -25.5090 C   0  0  0  0  0  0  0  0  0  0  0  0
   -7.5750   -1.4840  -21.0620 N   0  0  0  0  0  0  0  0  0  0  0  0
   -6.7730   -0.9760  -20.0170 C   0  0  0  0  0  0  0  0  0  0  0  0
   -5.6040   -0.2190  -20.3500 C   0  0  0  0  0  0  0  0  0  0  0  0
   -5.1160   -0.0610  -21.6750 C   0  0  0  0  0  0  0  0  0  0  0  0
   -4.0030    0.6910  -21.9280 C   0  0  0  0  0  0  0  0  0  0  0  0
   -3.3250    1.3240  -20.8930 C   0  0  0  0  0  0  0  0  0  0  0  0
   -3.7470    1.1900  -19.6010 C   0  0  0  0  0  0  0  0  0  0  0  0
   -4.8890    0.4090  -19.2910 C   0  0  0  0  0  0  0  0  0  0  0  0
   -5.3620    0.2140  -17.9720 C   0  0  0  0  0  0  0  0  0  0  0  0
   -6.4250   -0.5120  -17.6600 N   0  0  0  0  0  0  0  0  0  0  0  0
   -7.1010   -1.0850  -18.6650 C   0  0  0  0  0  0  0  0  0  0  0  0
  2  1  2  0
  3  2  1  0
  4  3  1  0
  5  4  2  0
  6  5  1  0
  7  6  1  0
  8  6  2  0
  9  8  1  0
 10  9  2  0
 10  4  1  0
 11 10  1  0
 12 11  1  0
 13 12  1  0
 13  3  1  0
  3 14  1  1
 15 14  1  0
 16 15  2  0
 17 15  1  0
 18 17  1  0
 19  2  1  0
 20 19  1  0
 21 20  1  0
 22 21  2  0
 23 22  1  0
 24 23  2  0
 25 24  1  0
 26 21  1  0
 26 25  2  0
 27 26  1  0
 28 27  2  0
 29 28  1  0
 29 20  2  0
M  END
$$$$

     RDKit          3D

 32 33  0  0  0  0  0  0  0  0999 V2000
   -5.2490   -3.5610  -21.7460 O   0  0  0  0  0  0  0  0  0  0  0  0
   -6.4280   -3.4880  -21.4380 C   0  0  0  0  0  0  0  0  0  0  0  0
   -6.9520   -4.3050  -20.2730 C   0  0  0  0  0  0  0  0  0  0  0  0
   -7.6310   -5.5850  -20.6810 C   0  0  0  0  0  0  0  0  0  0  0  0
   -7.2380   -2.5150  -21.9520 N   0  0  0  0  0  0  0  0  0  0  0  0
   -8.4580   -2.8200  -22.6550 C   0  0  0  0  0  0  0  0  0  0  0  0
   -8.4550   -2.9770  -24.0440 C   0  0  0  0  0  0  0  0  0  0  0  0
   -9.6510   -3.0920  -24.7370 C   0  0  0  0  0  0  0  0  0  0  0  0
  -10.8750   -3.0570  -24.0720 C   0  0  0  0  0  0  0  0  0  0  0  0
  -12.1890   -3.0830  -24.8640 C   0  0  1  0  0  0  0  0  0  0  0  0
  -12.2060   -4.2340  -25.8820 C   0  0  0  0  0  0  0  0  0  0  0  0
  -13.3980   -3.2540  -23.9470 C   0  0  0  0  0  0  0  0  0  0  0  0
  -12.3540   -1.7670  -25.6230 C   0  0  0  0  0  0  0  0  0  0  0  0
  -10.8620   -2.9380  -22.6840 C   0  0  0  0  0  0  0  0  0  0  0  0
   -9.6740   -2.8280  -21.9810 C   0  0  0  0  0  0  0  0  0  0  0  0
   -6.8630   -1.0930  -21.7360 C   0  0  2  0  0  0  0  0  0  0  0  0
   -6.2420   -0.7530  -20.3850 C   0  0  0  0  0  0  0  0  0  0  0  0
   -5.0830    0.0040  -20.3080 C   0  0  0  0  0  0  0  0  0  0  0  0
   -6.4360   -0.6650  -17.9830 N   0  0  0  0  0  0  0  0  0  0  0  0
   -4.6110    0.4280  -19.0810 C   0  0  0  0  0  0  0  0  0  0  0  0
   -5.3200    0.0720  -17.9480 C   0  0  0  0  0  0  0  0  0  0  0  0
   -6.8700   -1.0620  -19.1840 C   0  0  0  0  0  0  0  0  0  0  0  0
   -7.9610   -0.0930  -22.1340 C   0  0  0  0  0  0  0  0  0  0  0  0
   -8.8490    0.2100  -21.3410 O   0  0  0  0  0  0  0  0  0  0  0  0
   -7.8500    0.4440  -23.3490 N   0  0  0  0  0  0  0  0  0  0  0  0
   -8.6560    1.5730  -23.7920 C   0  0  0  0  0  0  0  0  0  0  0  0
  -10.0280    1.1570  -24.2780 C   0  0  0  0  0  0  0  0  0  0  0  0
  -11.0840    1.5870  -23.3040 C   0  0  0  0  0  0  0  0  0  0  0  0
  -11.0520    1.3540  -22.1250 O   0  0  0  0  0  0  0  0  0  0  0  0
  -12.0540    2.2860  -23.8970 O   0  0  0  0  0  0  0  0  0  0  0  0
  -13.1680    2.6970  -23.0470 C   0  0  0  0  0  0  0  0  0  0  0  0
  -13.2410    4.1420  -23.0320 C   0  0  0  0  0  0  0  0  0  0  0  0
  2  1  2  0
  3  2  1  0
  4  3  1  0
  5  2  1  0
  6  5  1  0
  7  6  2  0
  8  7  1  0
  9  8  2  0
 10  9  1  0
 10 11  1  6
 12 10  1  0
 13 10  1  0
 14  9  1  0
 15 14  2  0
 15  6  1  0
 16  5  1  1
 17 16  1  0
 18 17  2  0
 20 18  1  0
 21 19  1  0
 21 20  2  0
 22 19  2  0
 22 17  1  0
 23 16  1  0
 24 23  2  0
 25 23  1  0
 26 25  1  0
 27 26  1  0
 28 27  1  0
 29 28  2  0
 30 28  1  0
 31 30  1  0
 32 31  1  0
M  END
$$$$

     RDKit          3D

 18 19  0  0  0  0  0  0  0  0999 V2000
  -13.4680   -3.0200  -21.5590 Cl  0  0  0  0  0  0  0  0  0  0  0  0
  -12.2610   -2.2460  -22.5440 C   0  0  0  0  0  0  0  0  0  0  0  0
  -12.6520   -1.3640  -23.5260 C   0  0  0  0  0  0  0  0  0  0  0  0
  -11.6800   -0.8030  -24.3380 C   0  0  0  0  0  0  0  0  0  0  0  0
  -10.3390   -1.0940  -24.1280 C   0  0  0  0  0  0  0  0  0  0  0  0
  -10.9340   -2.5530  -22.3290 C   0  0  0  0  0  0  0  0  0  0  0  0
   -9.9530   -1.9580  -23.1140 C   0  0  0  0  0  0  0  0  0  0  0  0
   -8.4930   -2.1980  -22.8030 C   0  0  0  0  0  0  0  0  0  0  0  0
   -8.0880   -1.3670  -21.6030 C   0  0  0  0  0  0  0  0  0  0  0  0
   -8.7050   -0.3590  -21.2810 O   0  0  0  0  0  0  0  0  0  0  0  0
   -6.9900   -1.8000  -20.9590 N   0  0  0  0  0  0  0  0  0  0  0  0
   -6.3050   -1.1080  -19.9390 C   0  0  0  0  0  0  0  0  0  0  0  0
   -6.7150   -1.1370  -18.6110 C   0  0  0  0  0  0  0  0  0  0  0  0
   -6.1240   -0.4310  -17.6460 N   0  0  0  0  0  0  0  0  0  0  0  0
   -5.0890    0.3480  -17.9920 C   0  0  0  0  0  0  0  0  0  0  0  0
   -5.2280   -0.2890  -20.2650 C   0  0  0  0  0  0  0  0  0  0  0  0
   -4.6040    0.4690  -19.2880 C   0  0  0  0  0  0  0  0  0  0  0  0
   -3.4550    1.3900  -19.6240 C   0  0  0  0  0  0  0  0  0  0  0  0
  2  1  1  0
  3  2  2  0
  4  3  1  0
  5  4  2  0
  6  2  1  0
  7  6  2  0
  7  5  1  0
  8  7  1  0
  9  8  1  0
 10  9  2  0
 11  9  1  0
 12 11  1  0
 13 12  2  0
 14 13  1  0
 15 14  2  0
 16 12  1  0
 17 16  2  0
 17 15  1  0
 18 17  1  0
M  END
$$$$

     RDKit          3D

 18 19  0  0  0  0  0  0  0  0999 V2000
   -6.3400   -5.2670  -21.5410 N   0  0  0  0  0  0  0  0  0  0  0  0
   -6.6730   -4.0790  -19.4070 C   0  0  0  0  0  0  0  0  0  0  0  0
   -5.2150   -5.9170  -19.6950 O   0  0  0  0  0  0  0  0  0  0  0  0
   -6.0210   -5.1660  -20.2280 C   0  0  0  0  0  0  0  0  0  0  0  0
   -6.4340   -0.5990  -28.9720 C   0  0  0  0  0  0  0  0  0  0  0  0
   -5.5250    0.2950  -28.4520 C   0  0  0  0  0  0  0  0  0  0  0  0
   -4.8800    0.0050  -27.2720 C   0  0  0  0  0  0  0  0  0  0  0  0
   -5.1390   -1.1810  -26.6030 C   0  0  0  0  0  0  0  0  0  0  0  0
   -5.6410   -6.1860  -22.4510 C   0  0  0  0  0  0  0  0  0  0  0  0
   -5.0410   -5.4290  -23.6330 C   0  0  0  0  0  0  0  0  0  0  0  0
   -6.1170   -4.6150  -24.3390 C   0  0  1  0  0  0  0  0  0  0  0  0
   -6.7790   -3.6780  -23.3390 C   0  0  0  0  0  0  0  0  0  0  0  0
   -7.3890   -4.4870  -22.2040 C   0  0  0  0  0  0  0  0  0  0  0  0
   -6.3960   -3.3970  -26.4630 C   0  0  0  0  0  0  0  0  0  0  0  0
   -6.0490   -2.0980  -27.1210 C   0  0  0  0  0  0  0  0  0  0  0  0
   -6.7000   -1.7860  -28.3120 C   0  0  0  0  0  0  0  0  0  0  0  0
   -5.5890   -3.8500  -25.4740 N   0  0  0  0  0  0  0  0  0  0  0  0
   -7.4190   -4.0000  -26.7840 O   0  0  0  0  0  0  0  0  0  0  0  0
  4  2  1  0
  4  1  1  0
  4  3  2  0
  6  5  2  0
  7  6  1  0
  8  7  2  0
  9  1  1  0
 10  9  1  0
 11 10  1  0
 12 11  1  0
 13 12  1  0
 13  1  1  0
 15 14  1  0
 15  8  1  0
 16  5  1  0
 16 15  2  0
 17 14  1  0
 11 17  1  6
 18 14  2  0
M  END
$$$$

     RDKit          3D

 24 27  0  0  0  0  0  0  0  0999 V2000
   -9.3010    0.1390  -21.3690 O   0  0  0  0  0  0  0  0  0  0  0  0
   -8.8410   -0.8430  -21.9280 C   0  0  0  0  0  0  0  0  0  0  0  0
   -9.5070   -1.4120  -23.1770 C   0  0  2  0  0  0  0  0  0  0  0  0
  -11.0180   -1.2380  -23.1460 C   0  0  0  0  0  0  0  0  0  0  0  0
  -11.6440   -0.2990  -23.9580 C   0  0  0  0  0  0  0  0  0  0  0  0
  -13.0090   -0.0780  -23.8630 C   0  0  0  0  0  0  0  0  0  0  0  0
  -13.7740   -0.7960  -22.9540 C   0  0  0  0  0  0  0  0  0  0  0  0
  -11.7920   -1.9930  -22.2690 C   0  0  0  0  0  0  0  0  0  0  0  0
  -13.1510   -1.7560  -22.1790 C   0  0  0  0  0  0  0  0  0  0  0  0
  -14.0990   -2.6880  -21.0510 Cl  0  0  0  0  0  0  0  0  0  0  0  0
   -7.6760   -1.4330  -21.5050 N   0  0  0  0  0  0  0  0  0  0  0  0
   -7.1840   -2.7580  -21.9270 C   0  0  0  0  0  0  0  0  0  0  0  0
   -7.6390   -3.0860  -23.3360 C   0  0  0  0  0  0  0  0  0  0  0  0
   -9.1410   -2.8720  -23.4630 C   0  0  0  0  0  0  0  0  0  0  0  0
   -6.9580   -0.8810  -20.3970 C   0  0  0  0  0  0  0  0  0  0  0  0
   -5.8450   -0.0080  -20.5710 C   0  0  0  0  0  0  0  0  0  0  0  0
   -5.3360    0.3860  -21.8380 C   0  0  0  0  0  0  0  0  0  0  0  0
   -4.2430    1.2010  -21.9340 C   0  0  0  0  0  0  0  0  0  0  0  0
   -3.6130    1.6780  -20.7900 C   0  0  0  0  0  0  0  0  0  0  0  0
   -4.0730    1.3390  -19.5490 C   0  0  0  0  0  0  0  0  0  0  0  0
   -5.1930    0.4840  -19.4040 C   0  0  0  0  0  0  0  0  0  0  0  0
   -5.7010    0.0780  -18.1410 C   0  0  0  0  0  0  0  0  0  0  0  0
   -6.7380   -0.7360  -17.9850 N   0  0  0  0  0  0  0  0  0  0  0  0
   -7.3390   -1.1950  -19.0930 C   0  0  0  0  0  0  0  0  0  0  0  0
  2  1  2  0
  3  2  1  0
  3  4  1  1
  5  4  2  0
  6  5  1  0
  7  6  2  0
  8  4  1  0
  9  8  2  0
  9  7  1  0
 10  9  1  0
 11  2  1  0
 12 11  1  0
 13 12  1  0
 14 13  1  0
 14  3  1  0
 15 11  1  0
 16 15  1  0
 17 16  2  0
 18 17  1  0
 19 18  2  0
 20 19  1  0
 21 16  1  0
 21 20  2  0
 22 21  1  0
 23 22  2  0
 24 23  1  0
 24 15  2  0
M  END
$$$$

     RDKit          3D

 25 27  0  0  0  0  0  0  0  0999 V2000
  -13.7780   -2.4760  -21.7170 Cl  0  0  0  0  0  0  0  0  0  0  0  0
  -12.4460   -1.9890  -22.7270 C   0  0  0  0  0  0  0  0  0  0  0  0
  -12.6760   -1.1160  -23.7700 C   0  0  0  0  0  0  0  0  0  0  0  0
  -11.6000   -0.6980  -24.5350 C   0  0  0  0  0  0  0  0  0  0  0  0
  -10.3190   -1.1390  -24.2370 C   0  0  0  0  0  0  0  0  0  0  0  0
  -11.1790   -2.4470  -22.4280 C   0  0  0  0  0  0  0  0  0  0  0  0
  -10.0900   -1.9930  -23.1660 C   0  0  0  0  0  0  0  0  0  0  0  0
   -8.6830   -2.2990  -22.7100 C   0  0  0  0  0  0  0  0  0  0  0  0
   -8.1210   -1.2280  -21.7970 C   0  0  0  0  0  0  0  0  0  0  0  0
   -8.7560   -0.2090  -21.5170 O   0  0  0  0  0  0  0  0  0  0  0  0
   -6.9050   -1.5120  -21.2900 N   0  0  0  0  0  0  0  0  0  0  0  0
   -6.2850   -0.9550  -20.1600 C   0  0  0  0  0  0  0  0  0  0  0  0
   -6.6950   -1.2100  -18.8520 C   0  0  0  0  0  0  0  0  0  0  0  0
   -6.1550   -0.6580  -17.7570 N   0  0  0  0  0  0  0  0  0  0  0  0
   -5.1600    0.2010  -17.9320 C   0  0  0  0  0  0  0  0  0  0  0  0
   -4.6290    0.5600  -19.1940 C   0  0  0  0  0  0  0  0  0  0  0  0
   -5.2000   -0.0460  -20.3470 C   0  0  0  0  0  0  0  0  0  0  0  0
   -4.6610    0.2910  -21.6170 C   0  0  0  0  0  0  0  0  0  0  0  0
   -3.6410    1.1900  -21.7330 C   0  0  0  0  0  0  0  0  0  0  0  0
   -3.5750    1.4880  -19.3550 C   0  0  0  0  0  0  0  0  0  0  0  0
   -3.0930    1.8090  -20.6010 C   0  0  0  0  0  0  0  0  0  0  0  0
   -1.9950    2.8180  -20.7520 C   0  0  0  0  0  0  0  0  0  0  0  0
   -1.5810    3.1340  -21.8640 O   0  0  0  0  0  0  0  0  0  0  0  0
   -1.4540    3.3040  -19.6330 N   0  0  0  0  0  0  0  0  0  0  0  0
   -0.1280    3.8970  -19.6140 C   0  0  0  0  0  0  0  0  0  0  0  0
  2  1  1  0
  3  2  2  0
  4  3  1  0
  5  4  2  0
  6  2  1  0
  7  6  2  0
  7  5  1  0
  8  7  1  0
  9  8  1  0
 10  9  2  0
 11  9  1  0
 12 11  1  0
 13 12  2  0
 14 13  1  0
 15 14  2  0
 16 15  1  0
 17 12  1  0
 17 16  2  0
 18 17  1  0
 19 18  2  0
 20 16  1  0
 21 20  2  0
 21 19  1  0
 22 21  1  0
 23 22  2  0
 24 22  1  0
 25 24  1  0
M  END
$$$$

     RDKit          3D

 22 24  0  0  0  0  0  0  0  0999 V2000
   -9.1630   -0.1400  -21.2430 O   0  0  0  0  0  0  0  0  0  0  0  0
   -8.6020   -1.1720  -21.6200 C   0  0  0  0  0  0  0  0  0  0  0  0
   -9.2250   -2.0920  -22.6510 C   0  0  0  0  0  0  0  0  0  0  0  0
  -10.6750   -1.7870  -22.9430 C   0  0  0  0  0  0  0  0  0  0  0  0
  -11.0360   -0.7610  -23.7960 C   0  0  0  0  0  0  0  0  0  0  0  0
  -10.0470   -0.0630  -24.4010 F   0  0  0  0  0  0  0  0  0  0  0  0
  -12.3420   -0.3850  -24.0170 C   0  0  0  0  0  0  0  0  0  0  0  0
  -13.3470   -1.0410  -23.3330 C   0  0  0  0  0  0  0  0  0  0  0  0
  -11.6950   -2.4420  -22.2560 C   0  0  0  0  0  0  0  0  0  0  0  0
  -12.9940   -2.0370  -22.4560 C   0  0  0  0  0  0  0  0  0  0  0  0
  -13.9650   -2.5950  -21.6820 F   0  0  0  0  0  0  0  0  0  0  0  0
   -7.4050   -1.5870  -21.1510 N   0  0  0  0  0  0  0  0  0  0  0  0
   -6.6490   -1.0120  -20.1080 C   0  0  0  0  0  0  0  0  0  0  0  0
   -5.5380   -0.1760  -20.4450 C   0  0  0  0  0  0  0  0  0  0  0  0
   -5.1080    0.0700  -21.7740 C   0  0  0  0  0  0  0  0  0  0  0  0
   -4.0600    0.9120  -22.0270 C   0  0  0  0  0  0  0  0  0  0  0  0
   -3.3970    1.5480  -20.9900 C   0  0  0  0  0  0  0  0  0  0  0  0
   -3.7720    1.3440  -19.6940 C   0  0  0  0  0  0  0  0  0  0  0  0
   -4.8480    0.4750  -19.3840 C   0  0  0  0  0  0  0  0  0  0  0  0
   -5.3030    0.2450  -18.0610 C   0  0  0  0  0  0  0  0  0  0  0  0
   -6.3320   -0.5330  -17.7510 N   0  0  0  0  0  0  0  0  0  0  0  0
   -6.9750   -1.1400  -18.7590 C   0  0  0  0  0  0  0  0  0  0  0  0
  2  1  2  0
  3  2  1  0
  4  3  1  0
  5  4  2  0
  6  5  1  0
  7  5  1  0
  8  7  2  0
  9  4  1  0
 10  9  2  0
 10  8  1  0
 11 10  1  0
 12  2  1  0
 13 12  1  0
 14 13  1  0
 15 14  2  0
 16 15  1  0
 17 16  2  0
 18 17  1  0
 19 14  1  0
 19 18  2  0
 20 19  1  0
 21 20  2  0
 22 21  1  0
 22 13  2  0
M  END
$$$$

     RDKit          3D

 13 14  0  0  0  0  0  0  0  0999 V2000
   -9.0190   -6.1140  -26.8360 C   0  0  2  0  0  0  0  0  0  0  0  0
  -10.2610   -5.9920  -26.1160 C   0  0  0  0  0  0  0  0  0  0  0  0
  -10.5410   -4.5850  -25.5780 C   0  0  0  0  0  0  0  0  0  0  0  0
   -9.6420   -2.7820  -24.5770 C   0  0  0  0  0  0  0  0  0  0  0  0
  -11.0290   -2.4600  -24.0010 C   0  0  0  0  0  0  0  0  0  0  0  0
  -11.9690   -1.3860  -24.5410 C   0  0  0  0  0  0  0  0  0  0  0  0
  -13.1800   -1.3620  -23.7730 C   0  0  0  0  0  0  0  0  0  0  0  0
  -11.6480   -3.1080  -22.8840 C   0  0  0  0  0  0  0  0  0  0  0  0
   -8.2320   -4.0870  -25.6490 C   0  0  0  0  0  0  0  0  0  0  0  0
   -7.9330   -5.5190  -26.0990 C   0  0  0  0  0  0  0  0  0  0  0  0
   -9.4480   -3.9680  -24.8650 N   0  0  2  0  0  0  0  0  0  0  0  0
   -9.1610   -5.5350  -28.1110 O   0  0  0  0  0  0  0  0  0  0  0  0
  -13.1100   -2.4770  -22.6030 S   0  0  0  0  0  0  0  0  0  0  0  0
  2  1  1  0
  3  2  1  0
  5  4  1  0
  6  5  1  0
  7  6  2  0
  8  5  2  0
 10  1  1  0
 10  9  1  0
 11  9  1  0
 11  4  1  6
 11  3  1  0
  1 12  1  6
 13  8  1  0
 13  7  1  0
M  CHG  1  11   1
M  END
$$$$

     RDKit          3D

 23 26  0  0  0  0  0  0  0  0999 V2000
   -9.1280    0.0260  -21.2130 O   0  0  0  0  0  0  0  0  0  0  0  0
   -8.6030   -1.0670  -21.3700 C   0  0  0  0  0  0  0  0  0  0  0  0
   -9.2290   -2.3160  -21.9640 C   0  0  1  0  0  0  0  0  0  0  0  0
  -10.5440   -2.0520  -22.6770 C   0  0  0  0  0  0  0  0  0  0  0  0
  -10.7010   -1.1080  -23.6850 C   0  0  0  0  0  0  0  0  0  0  0  0
  -11.9670   -0.7050  -24.0820 C   0  0  0  0  0  0  0  0  0  0  0  0
  -13.0950   -1.2330  -23.4660 C   0  0  0  0  0  0  0  0  0  0  0  0
  -11.6720   -2.6320  -22.1140 C   0  0  0  0  0  0  0  0  0  0  0  0
  -12.9210   -2.1830  -22.4720 C   0  0  0  0  0  0  0  0  0  0  0  0
  -14.2930   -2.7070  -21.5320 Cl  0  0  0  0  0  0  0  0  0  0  0  0
   -7.3200   -1.4060  -21.0800 N   0  0  0  0  0  0  0  0  0  0  0  0
   -6.8730   -2.5810  -21.8580 C   0  0  0  0  0  0  0  0  0  0  0  0
   -8.0640   -2.8720  -22.7850 C   0  0  0  0  0  0  0  0  0  0  0  0
   -6.5180   -0.8060  -20.0620 C   0  0  0  0  0  0  0  0  0  0  0  0
   -5.4180    0.0460  -20.3690 C   0  0  0  0  0  0  0  0  0  0  0  0
   -5.0320    0.4080  -21.6880 C   0  0  0  0  0  0  0  0  0  0  0  0
   -3.9920    1.2660  -21.9050 C   0  0  0  0  0  0  0  0  0  0  0  0
   -3.2840    1.8010  -20.8390 C   0  0  0  0  0  0  0  0  0  0  0  0
   -3.6160    1.4850  -19.5530 C   0  0  0  0  0  0  0  0  0  0  0  0
   -4.6940    0.6070  -19.2810 C   0  0  0  0  0  0  0  0  0  0  0  0
   -5.1250    0.2920  -17.9680 C   0  0  0  0  0  0  0  0  0  0  0  0
   -6.1590   -0.4870  -17.6900 N   0  0  0  0  0  0  0  0  0  0  0  0
   -6.8240   -1.0170  -18.7220 C   0  0  0  0  0  0  0  0  0  0  0  0
  2  1  2  0
  3  2  1  0
  3  4  1  6
  5  4  2  0
  6  5  1  0
  7  6  2  0
  8  4  1  0
  9  8  2  0
  9  7  1  0
 10  9  1  0
 11  2  1  0
 12 11  1  0
 13 12  1  0
 13  3  1  0
 14 11  1  0
 15 14  1  0
 16 15  2  0
 17 16  1  0
 18 17  2  0
 19 18  1  0
 20 19  2  0
 20 15  1  0
 21 20  1  0
 22 21  2  0
 23 22  1  0
 23 14  2  0
M  END
$$$$

     RDKit          3D

 21 22  0  0  0  0  0  0  0  0999 V2000
  -14.1250   -1.7130  -23.7560 F   0  0  0  0  0  0  0  0  0  0  0  0
  -13.2020   -2.4890  -23.2460 C   0  0  1  0  0  0  0  0  0  0  0  0
  -13.4600   -2.5120  -21.9310 F   0  0  0  0  0  0  0  0  0  0  0  0
  -13.4240   -3.7140  -23.7370 F   0  0  0  0  0  0  0  0  0  0  0  0
  -11.8300   -1.9940  -23.5610 C   0  0  0  0  0  0  0  0  0  0  0  0
  -11.6030   -1.2060  -24.6860 C   0  0  0  0  0  0  0  0  0  0  0  0
  -10.3170   -0.8550  -25.0470 C   0  0  0  0  0  0  0  0  0  0  0  0
   -9.2460   -1.2890  -24.2830 C   0  0  0  0  0  0  0  0  0  0  0  0
  -10.7510   -2.4070  -22.7920 C   0  0  0  0  0  0  0  0  0  0  0  0
   -9.4520   -2.0680  -23.1500 C   0  0  0  0  0  0  0  0  0  0  0  0
   -8.2890   -2.5580  -22.3270 C   0  0  0  0  0  0  0  0  0  0  0  0
   -7.8590   -1.4820  -21.3530 C   0  0  0  0  0  0  0  0  0  0  0  0
   -8.5390   -0.4790  -21.1500 O   0  0  0  0  0  0  0  0  0  0  0  0
   -6.6860   -1.7300  -20.7400 N   0  0  0  0  0  0  0  0  0  0  0  0
   -6.1350   -0.9590  -19.7030 C   0  0  0  0  0  0  0  0  0  0  0  0
   -5.0140   -0.1490  -19.9540 C   0  0  0  0  0  0  0  0  0  0  0  0
   -4.4220   -0.0100  -21.3320 C   0  0  0  0  0  0  0  0  0  0  0  0
   -6.7160   -0.9480  -18.4400 C   0  0  0  0  0  0  0  0  0  0  0  0
   -6.2560   -0.1910  -17.4370 N   0  0  0  0  0  0  0  0  0  0  0  0
   -5.1820    0.5740  -17.6810 C   0  0  0  0  0  0  0  0  0  0  0  0
   -4.5320    0.6130  -18.8970 C   0  0  0  0  0  0  0  0  0  0  0  0
  2  1  1  6
  3  2  1  0
  4  2  1  0
  5  2  1  0
  6  5  2  0
  7  6  1  0
  8  7  2  0
  9  5  1  0
 10  9  2  0
 10  8  1  0
 11 10  1  0
 12 11  1  0
 13 12  2  0
 14 12  1  0
 15 14  1  0
 16 15  2  0
 17 16  1  0
 18 15  1  0
 19 18  2  0
 20 19  1  0
 21 20  2  0
 21 16  1  0
M  END
$$$$

     RDKit          3D

 19 21  0  0  0  0  0  0  0  0999 V2000
  -24.2590  -29.3850  -19.9310 Cl  0  0  0  0  0  0  0  0  0  0  0  0
  -23.5360  -28.6120  -18.5520 C   0  0  0  0  0  0  0  0  0  0  0  0
  -23.7410  -29.1570  -17.2990 C   0  0  0  0  0  0  0  0  0  0  0  0
  -23.1960  -28.5390  -16.1860 C   0  0  0  0  0  0  0  0  0  0  0  0
  -22.7910  -27.4660  -18.7450 C   0  0  0  0  0  0  0  0  0  0  0  0
  -22.2420  -26.8270  -17.6360 C   0  0  0  0  0  0  0  0  0  0  0  0
  -21.5000  -25.6050  -17.4350 C   0  0  0  0  0  0  0  0  0  0  0  0
  -21.0050  -24.6120  -18.2730 C   0  0  0  0  0  0  0  0  0  0  0  0
  -20.3850  -23.5080  -17.7150 C   0  0  0  0  0  0  0  0  0  0  0  0
  -22.4600  -27.3780  -16.3590 C   0  0  0  0  0  0  0  0  0  0  0  0
  -21.8960  -26.5530  -15.4080 N   0  0  0  0  0  0  0  0  0  0  0  0
  -21.3260  -25.4690  -16.0420 C   0  0  0  0  0  0  0  0  0  0  0  0
  -20.7160  -24.3600  -15.4820 C   0  0  0  0  0  0  0  0  0  0  0  0
  -20.2560  -23.3590  -16.3330 C   0  0  0  0  0  0  0  0  0  0  0  0
  -19.6680  -22.0950  -15.7280 C   0  0  1  0  0  0  0  0  0  0  0  0
  -18.9260  -21.2690  -16.7610 C   0  0  0  0  0  0  0  0  0  0  0  0
  -20.7840  -21.3560  -15.0200 C   0  0  0  0  0  0  0  0  0  0  0  0
  -20.8440  -21.3540  -13.8150 O   0  0  0  0  0  0  0  0  0  0  0  0
  -21.6760  -20.7830  -15.7980 O   0  0  0  0  0  0  0  0  0  0  0  0
  2  1  1  0
  3  2  2  0
  4  3  1  0
  5  2  1  0
  6  5  2  0
  7  6  1  0
  8  7  2  0
  9  8  1  0
 10  4  2  0
 10  6  1  0
 11 10  1  0
 12 11  1  0
 12  7  1  0
 13 12  2  0
 14  9  2  0
 14 13  1  0
 15 14  1  0
 15 16  1  6
 17 15  1  0
 18 17  2  0
 19 17  1  0
M  CHG  1  19  -1
M  END
$$$$

     RDKit          3D

 14 15  0  0  0  0  0  0  0  0999 V2000
  -23.3530   -9.4320   -6.2180 C   0  0  0  0  0  0  0  0  0  0  0  0
  -24.1310   -8.1800   -6.6140 C   0  0  0  0  0  0  0  0  0  0  0  0
  -25.5020   -8.1990   -6.6510 C   0  0  0  0  0  0  0  0  0  0  0  0
  -26.2120   -9.4120   -6.3090 C   0  0  0  0  0  0  0  0  0  0  0  0
  -25.4570  -10.6420   -5.9240 C   0  0  0  0  0  0  0  0  0  0  0  0
  -26.2280  -11.9090   -5.5810 C   0  0  0  0  0  0  0  0  0  0  0  0
  -27.5220  -12.0680   -7.4570 C   0  0  0  0  0  0  0  0  0  0  0  0
  -27.9420  -12.8760   -8.6720 C   0  0  0  0  0  0  0  0  0  0  0  0
  -27.0210  -14.8040   -7.5940 C   0  0  0  0  0  0  0  0  0  0  0  0
  -26.8610  -13.9540   -6.3450 C   0  0  0  0  0  0  0  0  0  0  0  0
  -24.0470  -10.6230   -5.8840 C   0  0  0  0  0  0  0  0  0  0  0  0
  -26.5350  -12.6170   -6.6820 N   0  0  2  0  0  0  0  0  0  0  0  0
  -27.8730  -14.2940   -8.5330 O   0  0  0  0  0  0  0  0  0  0  0  0
  -21.5690   -9.3600   -6.1970 Cl  0  0  0  0  0  0  0  0  0  0  0  0
  2  1  2  0
  3  2  1  0
  4  3  2  0
  5  4  1  0
  6  5  1  0
  8  7  2  0
 10  9  1  0
 11  5  2  0
 11  1  1  0
 12  7  1  0
 12 10  1  0
 12  6  1  1
 13  8  1  0
 13  9  1  0
 14  1  1  0
M  CHG  1  12   1
M  END
$$$$

     RDKit          3D

 26 28  0  0  0  0  0  0  0  0999 V2000
   -6.7870   -0.1890  -25.7500 F   0  0  0  0  0  0  0  0  0  0  0  0
   -6.1910   -1.2200  -26.3450 C   0  0  1  0  0  0  0  0  0  0  0  0
   -4.9820   -0.8050  -26.7120 F   0  0  0  0  0  0  0  0  0  0  0  0
   -6.0010   -2.1430  -25.4040 F   0  0  0  0  0  0  0  0  0  0  0  0
   -6.9780   -1.7430  -27.5080 C   0  0  2  0  0  0  0  0  0  0  0  0
   -7.5360   -0.7210  -28.4540 C   0  0  0  0  0  0  0  0  0  0  0  0
   -8.4400   -1.7340  -27.8250 C   0  0  2  0  0  0  0  0  0  0  0  0
   -9.6590   -1.2780  -27.1730 N   0  0  0  0  0  0  0  0  0  0  0  0
  -10.1560   -1.3770  -25.8770 C   0  0  0  0  0  0  0  0  0  0  0  0
  -11.4620   -0.9530  -25.6410 C   0  0  0  0  0  0  0  0  0  0  0  0
  -12.0090   -1.1480  -24.3880 C   0  0  0  0  0  0  0  0  0  0  0  0
  -13.7350   -0.9660  -24.1860 Cl  0  0  0  0  0  0  0  0  0  0  0  0
  -11.2630   -1.6530  -23.3390 C   0  0  0  0  0  0  0  0  0  0  0  0
   -9.4020   -1.9050  -24.8310 C   0  0  0  0  0  0  0  0  0  0  0  0
   -9.9450   -2.0400  -23.5580 C   0  0  0  0  0  0  0  0  0  0  0  0
   -9.1370   -2.6650  -22.4420 C   0  0  0  0  0  0  0  0  0  0  0  0
   -8.4610   -1.6300  -21.5640 C   0  0  0  0  0  0  0  0  0  0  0  0
   -8.9800   -0.5490  -21.3280 O   0  0  0  0  0  0  0  0  0  0  0  0
   -7.2650   -2.0040  -21.0700 N   0  0  0  0  0  0  0  0  0  0  0  0
   -6.5470   -1.2590  -20.1100 C   0  0  0  0  0  0  0  0  0  0  0  0
   -5.4100   -0.5250  -20.4910 C   0  0  0  0  0  0  0  0  0  0  0  0
   -4.9120   -0.5030  -21.9160 C   0  0  0  0  0  0  0  0  0  0  0  0
   -6.9950   -1.1640  -18.7950 C   0  0  0  0  0  0  0  0  0  0  0  0
   -6.4050   -0.4000  -17.8700 N   0  0  0  0  0  0  0  0  0  0  0  0
   -5.3150    0.2800  -18.2390 C   0  0  0  0  0  0  0  0  0  0  0  0
   -4.7900    0.2460  -19.5130 C   0  0  0  0  0  0  0  0  0  0  0  0
  2  1  1  1
  3  2  1  0
  4  2  1  0
  5  2  1  0
  5  6  1  6
  7  6  1  0
  7  5  1  0
  7  8  1  1
  9  8  1  0
 10  9  2  0
 11 10  1  0
 12 11  1  0
 13 11  2  0
 14  9  1  0
 15 13  1  0
 15 14  2  0
 16 15  1  0
 17 16  1  0
 18 17  2  0
 19 17  1  0
 20 19  1  0
 21 20  2  0
 22 21  1  0
 23 20  1  0
 24 23  2  0
 25 24  1  0
 26 25  2  0
 26 21  1  0
M  END
$$$$

     RDKit          3D

 11 11  0  0  0  0  0  0  0  0999 V2000
   -9.3760    3.9410  -23.3850 N   0  0  0  0  0  0  0  0  0  0  0  0
  -12.3400   -0.2020  -23.5250 C   0  0  0  0  0  0  0  0  0  0  0  0
  -10.1920    3.9500  -25.6990 O   0  0  0  0  0  0  0  0  0  0  0  0
  -11.0960   -0.1040  -24.1530 C   0  0  0  0  0  0  0  0  0  0  0  0
  -10.5880    1.1820  -24.4240 C   0  0  0  0  0  0  0  0  0  0  0  0
  -11.3000    2.3520  -24.0780 C   0  0  0  0  0  0  0  0  0  0  0  0
  -12.5490    2.1900  -23.4600 C   0  0  0  0  0  0  0  0  0  0  0  0
  -13.0750    0.9290  -23.1850 C   0  0  0  0  0  0  0  0  0  0  0  0
  -11.6050    4.8800  -23.9300 O   0  0  0  0  0  0  0  0  0  0  0  0
  -10.6810    3.8920  -24.3770 S   0  0  1  0  0  0  0  0  0  0  0  0
  -13.0940   -1.9710  -23.0570 Br  0  0  0  0  0  0  0  0  0  0  0  0
  4  2  2  0
  5  4  1  0
  6  5  2  0
  7  6  1  0
  8  7  2  0
  8  2  1  0
 10  9  2  0
 10  6  1  0
 10  3  2  0
 10  1  1  1
 11  2  1  0
M  END
$$$$

     RDKit          3D

 20 22  0  0  0  0  0  0  0  0999 V2000
   -8.5350   -0.2420  -21.3530 O   0  0  0  0  0  0  0  0  0  0  0  0
   -7.9430   -1.2790  -21.6460 C   0  0  0  0  0  0  0  0  0  0  0  0
   -8.3840   -2.1460  -22.8130 C   0  0  0  0  0  0  0  0  0  0  0  0
   -9.8460   -1.9180  -23.1230 C   0  0  0  0  0  0  0  0  0  0  0  0
  -10.2370   -1.0060  -24.0970 C   0  0  0  0  0  0  0  0  0  0  0  0
  -11.5770   -0.7000  -24.2850 C   0  0  0  0  0  0  0  0  0  0  0  0
  -12.5480   -1.3030  -23.5010 C   0  0  0  0  0  0  0  0  0  0  0  0
  -10.8260   -2.5470  -22.3640 C   0  0  0  0  0  0  0  0  0  0  0  0
  -12.1550   -2.2300  -22.5610 C   0  0  0  0  0  0  0  0  0  0  0  0
  -13.3670   -3.0510  -21.6110 Cl  0  0  0  0  0  0  0  0  0  0  0  0
   -6.8700   -1.7370  -20.9700 N   0  0  0  0  0  0  0  0  0  0  0  0
   -6.2620   -1.0430  -19.8970 C   0  0  0  0  0  0  0  0  0  0  0  0
   -5.1400   -0.2450  -20.1330 C   0  0  0  0  0  0  0  0  0  0  0  0
   -4.4800    0.0550  -21.2980 N   0  0  0  0  0  0  0  0  0  0  0  0
   -3.5090    0.9320  -20.9650 C   0  0  0  0  0  0  0  0  0  0  0  0
   -3.4810    1.2360  -19.6810 N   0  0  0  0  0  0  0  0  0  0  0  0
   -4.5220    0.4940  -19.1190 C   0  0  0  0  0  0  0  0  0  0  0  0
   -5.0890    0.3690  -17.8580 C   0  0  0  0  0  0  0  0  0  0  0  0
   -6.1700   -0.3740  -17.5860 N   0  0  0  0  0  0  0  0  0  0  0  0
   -6.7340   -1.0570  -18.5900 C   0  0  0  0  0  0  0  0  0  0  0  0
  2  1  2  0
  3  2  1  0
  4  3  1  0
  5  4  2  0
  6  5  1  0
  7  6  2  0
  8  4  1  0
  9  7  1  0
  9  8  2  0
 10  9  1  0
 11  2  1  0
 12 11  1  0
 13 12  2  0
 14 13  1  0
 15 14  1  0
 16 15  2  0
 17 16  1  0
 17 13  1  0
 18 17  2  0
 19 18  1  0
 20 19  2  0
 20 12  1  0
M  END
$$$$

     RDKit          3D

 25 27  0  0  0  0  0  0  0  0999 V2000
  -13.8060   -2.3380  -21.7510 Cl  0  0  0  0  0  0  0  0  0  0  0  0
  -12.4270   -1.9670  -22.7480 C   0  0  0  0  0  0  0  0  0  0  0  0
  -12.5840   -1.1210  -23.8290 C   0  0  0  0  0  0  0  0  0  0  0  0
  -11.4610   -0.7460  -24.5460 C   0  0  0  0  0  0  0  0  0  0  0  0
  -10.2060   -1.1900  -24.1600 C   0  0  0  0  0  0  0  0  0  0  0  0
  -11.1880   -2.4450  -22.3750 C   0  0  0  0  0  0  0  0  0  0  0  0
  -10.0530   -2.0220  -23.0560 C   0  0  0  0  0  0  0  0  0  0  0  0
   -8.6780   -2.3490  -22.5210 C   0  0  0  0  0  0  0  0  0  0  0  0
   -8.1350   -1.2990  -21.5710 C   0  0  0  0  0  0  0  0  0  0  0  0
   -8.7000   -0.2180  -21.4030 O   0  0  0  0  0  0  0  0  0  0  0  0
   -7.0060   -1.6620  -20.9240 N   0  0  0  0  0  0  0  0  0  0  0  0
   -6.3610   -0.9950  -19.8630 C   0  0  0  0  0  0  0  0  0  0  0  0
   -6.7170   -1.1340  -18.5230 C   0  0  0  0  0  0  0  0  0  0  0  0
   -6.1510   -0.4670  -17.5080 N   0  0  0  0  0  0  0  0  0  0  0  0
   -5.1720    0.3810  -17.8020 C   0  0  0  0  0  0  0  0  0  0  0  0
   -4.6900    0.6230  -19.1110 C   0  0  0  0  0  0  0  0  0  0  0  0
   -5.3030   -0.0920  -20.1790 C   0  0  0  0  0  0  0  0  0  0  0  0
   -4.8330    0.1390  -21.4940 C   0  0  0  0  0  0  0  0  0  0  0  0
   -3.8230    1.0240  -21.7330 C   0  0  0  0  0  0  0  0  0  0  0  0
   -3.6540    1.5380  -19.4080 C   0  0  0  0  0  0  0  0  0  0  0  0
   -3.2250    1.7520  -20.7080 C   0  0  0  0  0  0  0  0  0  0  0  0
   -2.1930    2.8370  -21.0190 C   0  0  2  0  0  0  0  0  0  0  0  0
   -1.5020    3.2770  -19.8330 O   0  0  0  0  0  0  0  0  0  0  0  0
   -2.8880    4.0650  -21.5960 C   0  0  0  0  0  0  0  0  0  0  0  0
   -1.1460    2.3150  -21.9980 C   0  0  0  0  0  0  0  0  0  0  0  0
  2  1  1  0
  3  2  2  0
  4  3  1  0
  5  4  2  0
  6  2  1  0
  7  6  2  0
  7  5  1  0
  8  7  1  0
  9  8  1  0
 10  9  2  0
 11  9  1  0
 12 11  1  0
 13 12  2  0
 14 13  1  0
 15 14  2  0
 16 15  1  0
 17 12  1  0
 17 16  2  0
 18 17  1  0
 19 18  2  0
 20 16  1  0
 21 20  2  0
 21 19  1  0
 22 21  1  0
 23 22  1  0
 22 24  1  6
 25 22  1  0
M  END
$$$$

     RDKit          3D

 24 26  0  0  0  0  0  0  0  0999 V2000
  -13.3650    5.5610  -22.4490 O   0  0  0  0  0  0  0  0  0  0  0  0
  -13.3450    4.3540  -22.6850 C   0  0  0  0  0  0  0  0  0  0  0  0
  -12.7090    3.1300  -22.0390 C   0  0  0  0  0  0  0  0  0  0  0  0
  -13.9020    3.6230  -23.6680 N   0  0  0  0  0  0  0  0  0  0  0  0
  -13.5390    2.3330  -23.0520 C   0  0  1  0  0  0  0  0  0  0  0  0
  -12.6210    1.5700  -23.8590 O   0  0  0  0  0  0  0  0  0  0  0  0
  -12.2540    0.3250  -23.3860 C   0  0  0  0  0  0  0  0  0  0  0  0
  -13.2080   -0.6090  -23.0150 C   0  0  0  0  0  0  0  0  0  0  0  0
  -12.7720   -1.8380  -22.5640 C   0  0  0  0  0  0  0  0  0  0  0  0
  -13.9470   -3.0140  -22.0450 Cl  0  0  0  0  0  0  0  0  0  0  0  0
  -11.4280   -2.1500  -22.4750 C   0  0  0  0  0  0  0  0  0  0  0  0
  -10.8990    0.0330  -23.3200 C   0  0  0  0  0  0  0  0  0  0  0  0
  -10.4780   -1.2090  -22.8550 C   0  0  0  0  0  0  0  0  0  0  0  0
   -9.0050   -1.5230  -22.7360 C   0  0  0  0  0  0  0  0  0  0  0  0
   -8.3610   -0.7770  -21.5850 C   0  0  0  0  0  0  0  0  0  0  0  0
   -8.8180    0.2840  -21.1630 O   0  0  0  0  0  0  0  0  0  0  0  0
   -7.2490   -1.3570  -21.0820 N   0  0  0  0  0  0  0  0  0  0  0  0
   -6.5220   -0.8120  -19.9980 C   0  0  0  0  0  0  0  0  0  0  0  0
   -5.4490    0.0630  -20.2480 C   0  0  0  0  0  0  0  0  0  0  0  0
   -4.9870    0.3790  -21.6490 C   0  0  0  0  0  0  0  0  0  0  0  0
   -6.8890   -1.0590  -18.6740 C   0  0  0  0  0  0  0  0  0  0  0  0
   -6.2700   -0.5080  -17.6210 N   0  0  0  0  0  0  0  0  0  0  0  0
   -5.2560    0.3280  -17.8740 C   0  0  0  0  0  0  0  0  0  0  0  0
   -4.8170    0.6340  -19.1480 C   0  0  0  0  0  0  0  0  0  0  0  0
  2  1  2  0
  3  2  1  0
  4  2  1  0
  5  4  1  0
  5  3  1  0
  5  6  1  6
  7  6  1  0
  8  7  2  0
  9  8  1  0
 10  9  1  0
 11  9  2  0
 12  7  1  0
 13 11  1  0
 13 12  2  0
 14 13  1  0
 15 14  1  0
 16 15  2  0
 17 15  1  0
 18 17  1  0
 19 18  2  0
 20 19  1  0
 21 18  1  0
 22 21  2  0
 23 22  1  0
 24 23  2  0
 24 19  1  0
M  END
$$$$

     RDKit          3D

 27 30  0  0  0  0  0  0  0  0999 V2000
  -13.1780   -1.9890  -22.2290 S   0  0  0  0  0  0  0  0  0  0  0  0
   -8.1810   -6.0630  -26.2100 N   0  0  0  0  0  0  0  0  0  0  0  0
   -7.2130   -1.4930  -19.0400 N   0  0  0  0  0  0  0  0  0  0  0  0
   -6.7170   -1.4360  -20.3020 N   0  0  0  0  0  0  0  0  0  0  0  0
   -8.3380   -4.8850  -25.5010 C   0  0  0  0  0  0  0  0  0  0  0  0
  -11.5180   -1.7160  -22.4790 C   0  0  0  0  0  0  0  0  0  0  0  0
   -4.8110   -0.1550  -21.3670 C   0  0  0  0  0  0  0  0  0  0  0  0
  -11.2690   -0.7970  -23.4620 C   0  0  0  0  0  0  0  0  0  0  0  0
   -7.5010   -3.7890  -25.7230 C   0  0  0  0  0  0  0  0  0  0  0  0
   -9.2940   -4.8180  -24.4930 C   0  0  0  0  0  0  0  0  0  0  0  0
   -3.6090    1.1390  -19.7080 C   0  0  0  0  0  0  0  0  0  0  0  0
   -9.4110   -3.6790  -23.7170 C   0  0  0  0  0  0  0  0  0  0  0  0
   -8.6010   -2.5710  -23.9540 C   0  0  0  0  0  0  0  0  0  0  0  0
  -13.5880   -0.8400  -23.4660 C   0  0  0  0  0  0  0  0  0  0  0  0
   -7.4690   -2.0370  -21.3780 C   0  0  0  0  0  0  0  0  0  0  0  0
   -3.7800    0.7120  -21.0240 C   0  0  0  0  0  0  0  0  0  0  0  0
  -12.4730   -0.2930  -24.0260 C   0  0  0  0  0  0  0  0  0  0  0  0
   -8.3890   -1.0160  -22.0400 C   0  0  0  0  0  0  0  0  0  0  0  0
   -5.6560   -0.5840  -20.3490 C   0  0  0  0  0  0  0  0  0  0  0  0
   -5.5100   -0.1470  -19.0370 C   0  0  0  0  0  0  0  0  0  0  0  0
   -7.1100   -6.3130  -27.1490 C   0  0  0  0  0  0  0  0  0  0  0  0
   -8.8790   -1.3390  -23.2740 N   0  0  0  0  0  0  0  0  0  0  0  0
   -8.6840    0.0210  -21.4610 O   0  0  0  0  0  0  0  0  0  0  0  0
   -9.8620   -0.4400  -23.8670 C   0  0  0  0  0  0  0  0  0  0  0  0
   -7.6300   -2.6420  -24.9540 C   0  0  0  0  0  0  0  0  0  0  0  0
   -4.4760    0.7240  -18.7040 C   0  0  0  0  0  0  0  0  0  0  0  0
   -6.4950   -0.7250  -18.2690 N   0  0  0  0  0  0  0  0  0  0  0  0
  4  3  1  0
  5  2  1  0
  6  1  1  0
  8  6  2  0
  9  5  2  0
 10  5  1  0
 12 10  2  0
 13 12  1  0
 14  1  1  0
 15  4  1  0
 16 11  1  0
 16  7  2  0
 17 14  2  0
 17  8  1  0
 18 15  1  0
 19  4  1  0
 19  7  1  0
 20 19  2  0
 21  2  1  0
 22 18  1  0
 22 13  1  0
 23 18  2  0
 24  8  1  0
 24 22  1  0
 25 13  2  0
 25  9  1  0
 26 20  1  0
 26 11  2  0
 27 20  1  0
 27  3  2  0
M  END
$$$$

     RDKit          3D

 34 39  0  0  0  0  0  0  0  0999 V2000
   -6.4750    3.1510  -25.0940 O   0  0  0  0  0  0  0  0  0  0  0  0
   -7.3090    2.4410  -24.5550 C   0  0  0  0  0  0  0  0  0  0  0  0
   -7.6820    2.5900  -23.2890 N   0  0  0  0  0  0  0  0  0  0  0  0
   -6.9510    3.4570  -22.3840 C   0  0  0  0  0  0  0  0  0  0  0  0
   -7.9250    1.2910  -25.3600 C   0  0  2  0  0  0  0  0  0  0  0  0
   -7.0540    0.6970  -26.4350 C   0  0  0  0  0  0  0  0  0  0  0  0
   -8.2010    1.5710  -26.8140 C   0  0  0  0  0  0  0  0  0  0  0  0
   -8.8580    0.3530  -24.6740 N   0  0  0  0  0  0  0  0  0  0  0  0
  -10.1520    0.7250  -24.4610 C   0  0  0  0  0  0  0  0  0  0  0  0
  -10.5460    1.8380  -24.7550 O   0  0  0  0  0  0  0  0  0  0  0  0
  -11.0370   -0.2530  -23.8090 C   0  0  0  0  0  0  0  0  0  0  0  0
  -12.4160   -0.0440  -23.8450 C   0  0  0  0  0  0  0  0  0  0  0  0
  -13.2720   -0.9170  -23.1970 C   0  0  0  0  0  0  0  0  0  0  0  0
  -12.7450   -2.0100  -22.5390 C   0  0  0  0  0  0  0  0  0  0  0  0
  -13.8180   -3.0660  -21.6640 Cl  0  0  0  0  0  0  0  0  0  0  0  0
  -11.3890   -2.2670  -22.5170 C   0  0  0  0  0  0  0  0  0  0  0  0
  -10.5200   -1.3670  -23.1300 C   0  0  0  0  0  0  0  0  0  0  0  0
   -8.3500   -0.9620  -24.2810 C   0  0  0  0  0  0  0  0  0  0  0  0
   -9.0080   -1.4760  -22.9720 C   0  0  1  0  0  0  0  0  0  0  0  0
   -8.4900   -0.6430  -21.7980 C   0  0  0  0  0  0  0  0  0  0  0  0
   -8.9280    0.4320  -21.4300 O   0  0  0  0  0  0  0  0  0  0  0  0
   -8.5140   -2.8950  -22.5930 C   0  0  0  0  0  0  0  0  0  0  0  0
   -7.2080   -2.6190  -21.8600 C   0  0  0  0  0  0  0  0  0  0  0  0
   -7.4460   -1.3080  -21.2330 N   0  0  0  0  0  0  0  0  0  0  0  0
   -6.6400   -0.8100  -20.1670 C   0  0  0  0  0  0  0  0  0  0  0  0
   -5.5170    0.0130  -20.4620 C   0  0  0  0  0  0  0  0  0  0  0  0
   -5.0580    0.2940  -21.7780 C   0  0  0  0  0  0  0  0  0  0  0  0
   -3.9850    1.1150  -21.9880 C   0  0  0  0  0  0  0  0  0  0  0  0
   -3.3240    1.7050  -20.9140 C   0  0  0  0  0  0  0  0  0  0  0  0
   -3.7230    1.4590  -19.6310 C   0  0  0  0  0  0  0  0  0  0  0  0
   -4.8200    0.5990  -19.3680 C   0  0  0  0  0  0  0  0  0  0  0  0
   -5.2700    0.2910  -18.0550 C   0  0  0  0  0  0  0  0  0  0  0  0
   -6.3090   -0.4970  -17.7870 N   0  0  0  0  0  0  0  0  0  0  0  0
   -6.9710   -1.0220  -18.8280 C   0  0  0  0  0  0  0  0  0  0  0  0
  2  1  2  0
  3  2  1  0
  4  3  1  0
  5  2  1  0
  6  5  1  0
  7  6  1  0
  7  5  1  0
  5  8  1  1
  9  8  1  0
 10  9  2  0
 11  9  1  0
 12 11  2  0
 13 12  1  0
 14 13  2  0
 15 14  1  0
 16 14  1  0
 17 16  2  0
 17 11  1  0
 18  8  1  0
 19 18  1  6
 19 17  1  0
 20 19  1  0
 21 20  2  0
 22 19  1  0
 23 22  1  0
 24 23  1  0
 24 20  1  0
 25 24  1  0
 26 25  1  0
 27 26  2  0
 28 27  1  0
 29 28  2  0
 30 29  1  0
 31 26  1  0
 31 30  2  0
 32 31  1  0
 33 32  2  0
 34 33  1  0
 34 25  2  0
M  END
$$$$

     RDKit          3D

 16 16  0  0  0  0  0  0  0  0999 V2000
   -9.3160   -0.1430  -21.3560 O   0  0  0  0  0  0  0  0  0  0  0  0
   -8.7610   -1.1290  -21.8230 C   0  0  0  0  0  0  0  0  0  0  0  0
   -9.2710   -1.8090  -23.0710 C   0  0  0  0  0  0  0  0  0  0  0  0
  -10.4340   -2.7690  -22.8010 C   0  0  2  0  0  0  0  0  0  0  0  0
  -10.4910   -3.8320  -23.8970 C   0  0  0  0  0  0  0  0  0  0  0  0
  -11.7790   -1.9960  -22.6330 C   0  0  2  0  0  0  0  0  0  0  0  0
  -12.9490   -2.8870  -22.2480 C   0  0  0  0  0  0  0  0  0  0  0  0
  -12.1290   -1.1610  -23.8540 C   0  0  0  0  0  0  0  0  0  0  0  0
   -7.6360   -1.6630  -21.3110 N   0  0  0  0  0  0  0  0  0  0  0  0
   -6.8400   -1.0840  -20.2920 C   0  0  0  0  0  0  0  0  0  0  0  0
   -5.6290   -0.4340  -20.6270 C   0  0  0  0  0  0  0  0  0  0  0  0
   -5.2080   -0.2120  -22.0580 C   0  0  0  0  0  0  0  0  0  0  0  0
   -4.8560    0.0580  -19.5810 C   0  0  0  0  0  0  0  0  0  0  0  0
   -5.3080   -0.0660  -18.2820 C   0  0  0  0  0  0  0  0  0  0  0  0
   -6.4640   -0.6540  -17.9510 N   0  0  0  0  0  0  0  0  0  0  0  0
   -7.2060   -1.1560  -18.9450 C   0  0  0  0  0  0  0  0  0  0  0  0
  2  1  2  0
  3  2  1  0
  4  3  1  0
  4  5  1  6
  6  4  1  0
  6  7  1  6
  8  6  1  0
  9  2  1  0
 10  9  1  0
 11 10  2  0
 12 11  1  0
 13 11  1  0
 14 13  2  0
 15 14  1  0
 16 15  2  0
 16 10  1  0
M  END
$$$$

     RDKit          3D

 18 19  0  0  0  0  0  0  0  0999 V2000
   -6.2990   -5.4340  -21.1730 C   0  0  0  0  0  0  0  0  0  0  0  0
   -7.6250   -4.8010  -20.8120 C   0  0  0  0  0  0  0  0  0  0  0  0
   -7.0650   -5.6810  -23.4810 C   0  0  0  0  0  0  0  0  0  0  0  0
   -7.5570   -4.5230  -24.0780 C   0  0  0  0  0  0  0  0  0  0  0  0
   -8.5660   -4.6080  -25.0250 C   0  0  0  0  0  0  0  0  0  0  0  0
   -9.0560   -5.8420  -25.3500 C   0  0  0  0  0  0  0  0  0  0  0  0
   -8.5970   -6.9970  -24.7850 C   0  0  0  0  0  0  0  0  0  0  0  0
   -7.5860   -6.9190  -23.8430 C   0  0  0  0  0  0  0  0  0  0  0  0
   -4.6280   -5.7700  -22.9590 C   0  0  2  0  0  0  0  0  0  0  0  0
   -4.4550   -5.4250  -24.4380 C   0  0  0  0  0  0  0  0  0  0  0  0
   -3.6600   -6.2450  -25.1190 C   0  0  0  0  0  0  0  0  0  0  0  0
   -4.1740   -7.2270  -22.7700 C   0  0  0  0  0  0  0  0  0  0  0  0
  -10.0540   -5.9270  -26.2700 F   0  0  0  0  0  0  0  0  0  0  0  0
   -6.0120   -5.6060  -22.5100 N   0  0  0  0  0  0  0  0  0  0  0  0
   -5.5210   -5.7890  -20.2950 O   0  0  0  0  0  0  0  0  0  0  0  0
   -2.0820   -8.1050  -24.1530 O   0  0  0  0  0  0  0  0  0  0  0  0
   -4.3150   -8.7770  -24.9250 O   0  0  0  0  0  0  0  0  0  0  0  0
   -3.4750   -7.7820  -24.3110 S   0  0  2  0  0  0  0  0  0  0  0  0
  2  1  1  0
  4  3  2  0
  5  4  1  0
  6  5  2  0
  7  6  1  0
  8  7  2  0
  8  3  1  0
 10  9  1  0
 11 10  1  0
 12  9  1  0
 13  6  1  0
 14  3  1  0
 14  1  1  0
  9 14  1  6
 15  1  2  0
 18 17  2  0
 18 16  2  0
 18 12  1  1
 18 11  1  0
M  END
$$$$

     RDKit          3D

 25 27  0  0  0  0  0  0  0  0999 V2000
  -13.8860   -2.7600  -21.7030 Cl  0  0  0  0  0  0  0  0  0  0  0  0
  -12.6350   -2.0470  -22.6840 C   0  0  0  0  0  0  0  0  0  0  0  0
  -12.9730   -1.0820  -23.6130 C   0  0  0  0  0  0  0  0  0  0  0  0
  -11.9610   -0.4790  -24.3400 C   0  0  0  0  0  0  0  0  0  0  0  0
  -10.6360   -0.8240  -24.1130 C   0  0  0  0  0  0  0  0  0  0  0  0
  -11.3230   -2.4220  -22.4700 C   0  0  0  0  0  0  0  0  0  0  0  0
  -10.3020   -1.7850  -23.1680 C   0  0  0  0  0  0  0  0  0  0  0  0
   -8.8570   -2.0750  -22.8310 C   0  0  0  0  0  0  0  0  0  0  0  0
   -8.3060   -1.1770  -21.7400 C   0  0  0  0  0  0  0  0  0  0  0  0
   -8.8680   -0.1270  -21.4140 O   0  0  0  0  0  0  0  0  0  0  0  0
   -7.1710   -1.6290  -21.1650 N   0  0  0  0  0  0  0  0  0  0  0  0
   -6.4760   -1.0720  -20.0770 C   0  0  0  0  0  0  0  0  0  0  0  0
   -6.8960   -1.1940  -18.7510 C   0  0  0  0  0  0  0  0  0  0  0  0
   -6.3280   -0.5750  -17.7060 N   0  0  0  0  0  0  0  0  0  0  0  0
   -5.2930    0.2170  -17.9540 C   0  0  0  0  0  0  0  0  0  0  0  0
   -5.3380   -0.2450  -20.3390 C   0  0  0  0  0  0  0  0  0  0  0  0
   -4.7400    0.4320  -19.2400 C   0  0  0  0  0  0  0  0  0  0  0  0
   -3.6120    1.2540  -19.4720 C   0  0  0  0  0  0  0  0  0  0  0  0
   -3.0860    1.3830  -20.7220 C   0  0  0  0  0  0  0  0  0  0  0  0
   -4.7590   -0.0850  -21.6250 C   0  0  0  0  0  0  0  0  0  0  0  0
   -3.6430    0.6980  -21.8100 C   0  0  0  0  0  0  0  0  0  0  0  0
   -2.9730    0.7530  -23.1470 C   0  0  0  0  0  0  0  0  0  0  0  0
   -3.5800    0.4450  -24.1690 O   0  0  0  0  0  0  0  0  0  0  0  0
   -1.6810    1.0770  -23.1610 N   0  0  0  0  0  0  0  0  0  0  0  0
   -0.8210    0.7480  -24.2820 C   0  0  0  0  0  0  0  0  0  0  0  0
  2  1  1  0
  3  2  2  0
  4  3  1  0
  5  4  2  0
  6  2  1  0
  7  6  2  0
  7  5  1  0
  8  7  1  0
  9  8  1  0
 10  9  2  0
 11  9  1  0
 12 11  1  0
 13 12  2  0
 14 13  1  0
 15 14  2  0
 16 12  1  0
 17 16  2  0
 17 15  1  0
 18 17  1  0
 19 18  2  0
 20 16  1  0
 21 20  2  0
 21 19  1  0
 22 21  1  0
 23 22  2  0
 24 22  1  0
 25 24  1  0
M  END
$$$$

     RDKit          3D

 11 11  0  0  0  0  0  0  0  0999 V2000
   -8.1150   -1.2410  -27.7310 C   0  0  0  0  0  0  0  0  0  0  0  0
   -8.6750   -1.7890  -26.4360 C   0  0  0  0  0  0  0  0  0  0  0  0
  -10.6670   -1.4630  -24.9590 C   0  0  0  0  0  0  0  0  0  0  0  0
  -10.2920   -2.5750  -24.2170 C   0  0  0  0  0  0  0  0  0  0  0  0
  -11.0830   -2.9990  -23.1680 C   0  0  0  0  0  0  0  0  0  0  0  0
  -12.2390   -2.2940  -22.8840 C   0  0  0  0  0  0  0  0  0  0  0  0
  -13.1360   -2.7450  -21.7400 C   0  0  0  0  0  0  0  0  0  0  0  0
  -12.5560   -1.1880  -23.6710 C   0  0  0  0  0  0  0  0  0  0  0  0
   -9.8380   -1.0130  -26.0500 N   0  0  0  0  0  0  0  0  0  0  0  0
  -13.8220   -3.0570  -20.8900 N   0  0  0  0  0  0  0  0  0  0  0  0
  -11.7720   -0.8010  -24.6760 N   0  0  0  0  0  0  0  0  0  0  0  0
  2  1  1  0
  4  3  2  0
  5  4  1  0
  6  5  2  0
  7  6  1  0
  8  6  1  0
  9  3  1  0
  9  2  1  0
 10  7  3  0
 11  8  2  0
 11  3  1  0
M  END
$$$$

     RDKit          3D

 25 27  0  0  0  0  0  0  0  0999 V2000
  -10.7710    3.9200  -23.2380 N   0  0  0  0  0  0  0  0  0  0  0  0
   -6.6010   -3.2790  -21.0790 N   0  0  0  0  0  0  0  0  0  0  0  0
   -8.4370   -2.9020  -23.2530 N   0  0  2  0  0  0  0  0  0  0  0  0
   -9.8080    4.5950  -23.8690 C   0  0  0  0  0  0  0  0  0  0  0  0
  -12.0530   -0.2920  -23.4400 C   0  0  0  0  0  0  0  0  0  0  0  0
   -7.5040   -2.1230  -21.1130 C   0  0  0  0  0  0  0  0  0  0  0  0
   -5.5440   -4.9190  -19.9460 O   0  0  0  0  0  0  0  0  0  0  0  0
   -9.6500   -3.2440  -24.0170 C   0  0  0  0  0  0  0  0  0  0  0  0
  -12.0380    3.5870  -23.8740 C   0  0  0  0  0  0  0  0  0  0  0  0
  -10.9660   -1.0570  -23.9080 C   0  0  0  0  0  0  0  0  0  0  0  0
  -13.0210   -2.2940  -22.5230 C   0  0  0  0  0  0  0  0  0  0  0  0
  -10.5790    1.0730  -24.4440 C   0  0  0  0  0  0  0  0  0  0  0  0
  -11.7710    1.0810  -23.7780 C   0  0  0  0  0  0  0  0  0  0  0  0
   -6.2190   -3.7010  -22.4350 C   0  0  0  0  0  0  0  0  0  0  0  0
   -6.2710   -3.9350  -19.9440 C   0  0  0  0  0  0  0  0  0  0  0  0
  -13.0860   -0.9280  -22.7510 C   0  0  0  0  0  0  0  0  0  0  0  0
   -7.4730   -4.0310  -23.2590 C   0  0  0  0  0  0  0  0  0  0  0  0
   -8.7620   -2.5080  -21.8600 C   0  0  0  0  0  0  0  0  0  0  0  0
   -6.8580   -3.4170  -18.6420 C   0  0  0  0  0  0  0  0  0  0  0  0
   -8.5380    4.8200  -23.0960 C   0  0  0  0  0  0  0  0  0  0  0  0
  -10.0840   -0.2040  -24.5260 N   0  0  0  0  0  0  0  0  0  0  0  0
   -9.9530    4.9960  -25.0220 O   0  0  0  0  0  0  0  0  0  0  0  0
  -10.8760   -2.4350  -23.6570 C   0  0  0  0  0  0  0  0  0  0  0  0
  -12.5980    2.2690  -23.3810 C   0  0  0  0  0  0  0  0  0  0  0  0
  -11.9320   -3.0320  -22.9650 C   0  0  0  0  0  0  0  0  0  0  0  0
  4  1  1  0
  6  2  1  0
  3  8  1  1
  9  1  1  0
 10  5  2  0
 13  5  1  0
 13 12  2  0
 14  2  1  0
 15  7  2  0
 15  2  1  0
 16 11  2  0
 16  5  1  0
 17 14  1  0
 17  3  1  0
 18  3  1  0
 18  6  1  0
 19 15  1  0
 20  4  1  0
 21 10  1  0
 21 12  1  0
 22  4  2  0
 23 10  1  0
 23  8  1  0
 24 13  1  0
 24  9  1  0
 25 11  1  0
 25 23  2  0
M  CHG  1   3   1
M  END
$$$$

     RDKit          3D

 15 16  0  0  0  0  0  0  0  0999 V2000
   -6.7810   -4.8960  -21.4800 N   0  0  0  0  0  0  0  0  0  0  0  0
   -7.2030   -5.8970  -27.8270 C   0  0  0  0  0  0  0  0  0  0  0  0
   -7.0670   -5.9490  -26.4060 O   0  0  0  0  0  0  0  0  0  0  0  0
   -5.9540   -6.5240  -25.8790 C   0  0  0  0  0  0  0  0  0  0  0  0
   -5.0020   -7.2360  -26.6050 C   0  0  0  0  0  0  0  0  0  0  0  0
   -3.8950   -7.7880  -25.9530 C   0  0  0  0  0  0  0  0  0  0  0  0
   -3.7220   -7.6470  -24.5940 C   0  0  0  0  0  0  0  0  0  0  0  0
   -4.6820   -6.9370  -23.8820 C   0  0  0  0  0  0  0  0  0  0  0  0
   -6.1770   -5.6530  -22.4630 C   0  0  0  0  0  0  0  0  0  0  0  0
   -6.3120   -4.7260  -20.2050 C   0  0  0  0  0  0  0  0  0  0  0  0
   -7.1610   -3.8460  -19.3190 C   0  0  0  0  0  0  0  0  0  0  0  0
   -5.8050   -6.3690  -24.5030 C   0  0  0  0  0  0  0  0  0  0  0  0
   -6.6750   -5.6900  -23.6650 N   0  0  0  0  0  0  0  0  0  0  0  0
   -5.2800   -5.2530  -19.8230 O   0  0  0  0  0  0  0  0  0  0  0  0
   -4.7340   -6.5980  -22.1730 S   0  0  0  0  0  0  0  0  0  0  0  0
  3  2  1  0
  4  3  1  0
  5  4  2  0
  6  5  1  0
  7  6  2  0
  8  7  1  0
  9  1  1  0
 10  1  1  0
 11 10  1  0
 12  4  1  0
 12  8  2  0
 13 12  1  0
 13  9  2  0
 14 10  2  0
 15  9  1  0
 15  8  1  0
M  END
$$$$

     RDKit          3D

 24 26  0  0  0  0  0  0  0  0999 V2000
   -4.9850    0.1210  -17.9590 Br  0  0  0  0  0  0  0  0  0  0  0  0
   -5.4990   -1.0110  -19.3850 C   0  0  0  0  0  0  0  0  0  0  0  0
   -5.7780   -2.3290  -19.1180 C   0  0  0  0  0  0  0  0  0  0  0  0
   -6.1510   -3.1630  -20.1620 C   0  0  0  0  0  0  0  0  0  0  0  0
   -6.5780   -4.6000  -20.1510 C   0  0  0  0  0  0  0  0  0  0  0  0
   -5.5100   -5.4340  -19.7470 O   0  0  0  0  0  0  0  0  0  0  0  0
   -6.8020   -4.8730  -21.6300 C   0  0  0  0  0  0  0  0  0  0  0  0
   -7.0190   -5.9550  -22.1440 O   0  0  0  0  0  0  0  0  0  0  0  0
   -5.5730   -0.4970  -20.6610 C   0  0  0  0  0  0  0  0  0  0  0  0
   -5.9240   -1.3260  -21.7230 C   0  0  0  0  0  0  0  0  0  0  0  0
   -5.9010   -0.7660  -23.1240 C   0  0  0  0  0  0  0  0  0  0  0  0
   -6.2280   -2.6670  -21.4450 C   0  0  0  0  0  0  0  0  0  0  0  0
   -6.7430   -3.6710  -22.2890 N   0  0  0  0  0  0  0  0  0  0  0  0
   -7.1920   -3.4940  -23.6660 C   0  0  0  0  0  0  0  0  0  0  0  0
   -8.5750   -2.8950  -23.7660 C   0  0  0  0  0  0  0  0  0  0  0  0
   -8.9830   -2.2860  -24.9470 C   0  0  0  0  0  0  0  0  0  0  0  0
  -10.2180   -1.6710  -25.0320 C   0  0  0  0  0  0  0  0  0  0  0  0
  -10.6740   -0.9890  -26.1280 O   0  0  0  0  0  0  0  0  0  0  0  0
   -9.8470   -0.9760  -27.2990 C   0  0  0  0  0  0  0  0  0  0  0  0
   -9.4370   -2.8910  -22.6760 C   0  0  0  0  0  0  0  0  0  0  0  0
  -10.6860   -2.3030  -22.7460 C   0  0  0  0  0  0  0  0  0  0  0  0
  -11.0860   -1.6890  -23.9260 C   0  0  0  0  0  0  0  0  0  0  0  0
  -12.3100   -1.1110  -24.1350 O   0  0  0  0  0  0  0  0  0  0  0  0
  -13.2670   -1.1630  -23.0790 C   0  0  0  0  0  0  0  0  0  0  0  0
  2  1  1  0
  3  2  2  0
  4  3  1  0
  5  4  1  0
  6  5  1  0
  7  5  2  0
  8  7  1  0
  9  2  1  0
 10  9  2  0
 11 10  1  0
 12 10  1  0
 12  4  2  0
 13 12  1  0
 13  7  1  0
 14 13  1  0
 15 14  1  0
 16 15  2  0
 17 16  1  0
 18 17  1  0
 19 18  1  0
 20 15  1  0
 21 20  2  0
 22 21  1  0
 22 17  2  0
 23 22  1  0
 24 23  1  0
M  END
$$$$

     RDKit          3D

 33 37  0  0  0  0  0  0  0  0999 V2000
  -10.8690    1.9450  -24.6220 O   0  0  0  0  0  0  0  0  0  0  0  0
  -10.4500    0.8450  -24.3220 C   0  0  0  0  0  0  0  0  0  0  0  0
   -9.1670    0.4710  -24.5600 N   0  0  0  0  0  0  0  0  0  0  0  0
   -8.2980    1.3100  -25.3660 C   0  0  0  0  0  0  0  0  0  0  0  0
   -7.6840    2.5160  -24.6670 C   0  0  0  0  0  0  0  0  0  0  0  0
   -7.0090    3.3200  -25.3050 O   0  0  0  0  0  0  0  0  0  0  0  0
   -7.8800    2.6450  -23.3600 N   0  0  0  0  0  0  0  0  0  0  0  0
   -7.1360    3.5990  -22.5570 C   0  0  0  0  0  0  0  0  0  0  0  0
  -11.3040   -0.1430  -23.6430 C   0  0  0  0  0  0  0  0  0  0  0  0
  -12.6740    0.0940  -23.5740 C   0  0  0  0  0  0  0  0  0  0  0  0
  -13.5010   -0.7810  -22.8980 C   0  0  0  0  0  0  0  0  0  0  0  0
  -12.9560   -1.8990  -22.3090 C   0  0  0  0  0  0  0  0  0  0  0  0
  -13.9890   -2.9580  -21.3930 Cl  0  0  0  0  0  0  0  0  0  0  0  0
  -11.6040   -2.1830  -22.3830 C   0  0  0  0  0  0  0  0  0  0  0  0
  -10.7600   -1.2840  -23.0310 C   0  0  0  0  0  0  0  0  0  0  0  0
   -9.2380   -1.4170  -22.9420 C   0  0  1  0  0  0  0  0  0  0  0  0
   -8.6880   -0.8870  -24.2930 C   0  0  0  0  0  0  0  0  0  0  0  0
   -8.6480   -0.5710  -21.8050 C   0  0  0  0  0  0  0  0  0  0  0  0
   -9.0130    0.5400  -21.4720 O   0  0  0  0  0  0  0  0  0  0  0  0
   -7.6160   -1.2640  -21.2460 N   0  0  0  0  0  0  0  0  0  0  0  0
   -7.4000   -2.5740  -21.8840 C   0  0  0  0  0  0  0  0  0  0  0  0
   -8.7240   -2.8390  -22.6010 C   0  0  0  0  0  0  0  0  0  0  0  0
   -6.7960   -0.7870  -20.1730 C   0  0  0  0  0  0  0  0  0  0  0  0
   -5.6900    0.0720  -20.4560 C   0  0  0  0  0  0  0  0  0  0  0  0
   -5.3150    0.4580  -21.7690 C   0  0  0  0  0  0  0  0  0  0  0  0
   -4.2540    1.3030  -21.9450 C   0  0  0  0  0  0  0  0  0  0  0  0
   -3.8910    1.8720  -23.5530 Cl  0  0  0  0  0  0  0  0  0  0  0  0
   -3.5040    1.7810  -20.8810 C   0  0  0  0  0  0  0  0  0  0  0  0
   -3.8430    1.4310  -19.6060 C   0  0  0  0  0  0  0  0  0  0  0  0
   -4.9410    0.5750  -19.3540 C   0  0  0  0  0  0  0  0  0  0  0  0
   -5.3430    0.1860  -18.0490 C   0  0  0  0  0  0  0  0  0  0  0  0
   -6.3740   -0.6060  -17.7900 N   0  0  0  0  0  0  0  0  0  0  0  0
   -7.0680   -1.0740  -18.8400 C   0  0  0  0  0  0  0  0  0  0  0  0
  2  1  2  0
  3  2  1  0
  4  3  1  0
  5  4  1  0
  6  5  2  0
  7  5  1  0
  8  7  1  0
  9  2  1  0
 10  9  2  0
 11 10  1  0
 12 11  2  0
 13 12  1  0
 14 12  1  0
 15 14  2  0
 15  9  1  0
 16 15  1  0
 16 17  1  6
 17  3  1  0
 18 16  1  0
 19 18  2  0
 20 18  1  0
 21 20  1  0
 22 21  1  0
 22 16  1  0
 23 20  1  0
 24 23  1  0
 25 24  2  0
 26 25  1  0
 27 26  1  0
 28 26  2  0
 29 28  1  0
 30 24  1  0
 30 29  2  0
 31 30  1  0
 32 31  2  0
 33 32  1  0
 33 23  2  0
M  END
$$$$

     RDKit          3D

 24 27  0  0  0  0  0  0  0  0999 V2000
   -8.8680    0.1010  -21.3700 O   0  0  0  0  0  0  0  0  0  0  0  0
   -8.6220   -0.9830  -21.8890 C   0  0  0  0  0  0  0  0  0  0  0  0
   -7.5710   -1.9030  -21.2610 C   0  0  0  0  0  0  0  0  0  0  0  0
   -6.8900   -1.2610  -20.1560 N   0  0  0  0  0  0  0  0  0  0  0  0
   -5.7970   -0.4490  -20.1690 C   0  0  0  0  0  0  0  0  0  0  0  0
   -5.0160    0.0900  -21.1790 C   0  0  0  0  0  0  0  0  0  0  0  0
   -3.9980    0.9610  -20.8140 C   0  0  0  0  0  0  0  0  0  0  0  0
   -3.7660    1.2670  -19.4750 C   0  0  0  0  0  0  0  0  0  0  0  0
   -4.5440    0.7140  -18.4690 C   0  0  0  0  0  0  0  0  0  0  0  0
   -5.5740   -0.1510  -18.8260 C   0  0  0  0  0  0  0  0  0  0  0  0
   -6.5250   -0.7940  -18.0680 N   0  0  0  0  0  0  0  0  0  0  0  0
   -7.3150   -1.4500  -18.8790 N   0  0  0  0  0  0  0  0  0  0  0  0
   -9.2330   -1.3680  -23.0460 N   0  0  0  0  0  0  0  0  0  0  0  0
   -8.8730   -2.6080  -23.7980 C   0  0  1  0  0  0  0  0  0  0  0  0
   -9.2140   -3.9260  -23.1880 C   0  0  0  0  0  0  0  0  0  0  0  0
   -9.9640   -3.4380  -24.3870 C   0  0  0  0  0  0  0  0  0  0  0  0
  -10.2150   -0.4420  -23.6860 C   0  0  1  0  0  0  0  0  0  0  0  0
   -9.9230   -0.1660  -25.1610 C   0  0  0  0  0  0  0  0  0  0  0  0
  -11.6580   -0.5890  -23.2240 C   0  0  0  0  0  0  0  0  0  0  0  0
  -12.5370    0.4780  -23.3740 C   0  0  0  0  0  0  0  0  0  0  0  0
  -13.8590    0.3680  -22.9760 C   0  0  0  0  0  0  0  0  0  0  0  0
  -14.3230   -0.8090  -22.4300 C   0  0  0  0  0  0  0  0  0  0  0  0
  -13.4630   -1.8740  -22.2680 C   0  0  0  0  0  0  0  0  0  0  0  0
  -12.1360   -1.7640  -22.6570 C   0  0  0  0  0  0  0  0  0  0  0  0
  2  1  2  0
  3  2  1  0
  4  3  1  0
  5  4  1  0
  6  5  2  0
  7  6  1  0
  8  7  2  0
  9  8  1  0
 10  5  1  0
 10  9  2  0
 11 10  1  0
 12 11  2  0
 12  4  1  0
 13  2  1  0
 14 13  1  1
 15 14  1  0
 16 15  1  0
 16 14  1  0
 17 13  1  0
 17 18  1  6
 19 17  1  0
 20 19  2  0
 21 20  1  0
 22 21  2  0
 23 22  1  0
 24 23  2  0
 24 19  1  0
M  END
$$$$

     RDKit          3D

 30 34  0  0  0  0  0  0  0  0999 V2000
   -8.5320    2.2610  -26.5670 O   0  0  0  0  0  0  0  0  0  0  0  0
   -7.6510    1.6340  -25.9780 C   0  0  0  0  0  0  0  0  0  0  0  0
   -6.4370    2.1020  -25.6780 N   0  0  0  0  0  0  0  0  0  0  0  0
   -5.5220    1.1000  -25.1550 C   0  0  0  0  0  0  0  0  0  0  0  0
   -6.1480   -0.2210  -25.6340 C   0  0  0  0  0  0  0  0  0  0  0  0
   -7.6380    0.1350  -25.7240 C   0  0  1  0  0  0  0  0  0  0  0  0
   -8.5480   -0.3260  -24.6460 N   0  0  1  0  0  0  0  0  0  0  0  0
   -9.9600   -0.1630  -25.0190 C   0  0  0  0  0  0  0  0  0  0  0  0
   -8.2890   -1.7130  -24.2280 C   0  0  0  0  0  0  0  0  0  0  0  0
   -9.0310   -2.0090  -22.9270 C   0  0  2  0  0  0  0  0  0  0  0  0
  -10.5150   -1.7630  -23.1180 C   0  0  0  0  0  0  0  0  0  0  0  0
  -10.9360   -0.8110  -24.0580 C   0  0  0  0  0  0  0  0  0  0  0  0
  -12.2930   -0.5060  -24.1540 C   0  0  0  0  0  0  0  0  0  0  0  0
  -13.2210   -1.1340  -23.3470 C   0  0  0  0  0  0  0  0  0  0  0  0
  -11.4610   -2.4290  -22.3420 C   0  0  0  0  0  0  0  0  0  0  0  0
  -12.7960   -2.0920  -22.4570 C   0  0  0  0  0  0  0  0  0  0  0  0
  -13.9500   -2.8310  -21.3870 Cl  0  0  0  0  0  0  0  0  0  0  0  0
   -8.4620   -1.1130  -21.8240 C   0  0  0  0  0  0  0  0  0  0  0  0
   -8.9920   -0.0450  -21.5060 O   0  0  0  0  0  0  0  0  0  0  0  0
   -7.3430   -1.5930  -21.2290 N   0  0  0  0  0  0  0  0  0  0  0  0
   -6.6290   -1.0340  -20.1460 C   0  0  0  0  0  0  0  0  0  0  0  0
   -5.4920   -0.2060  -20.4180 C   0  0  0  0  0  0  0  0  0  0  0  0
   -4.9630    0.0090  -21.7160 C   0  0  0  0  0  0  0  0  0  0  0  0
   -3.8710    0.8090  -21.9060 C   0  0  0  0  0  0  0  0  0  0  0  0
   -3.2580    1.4400  -20.8330 C   0  0  0  0  0  0  0  0  0  0  0  0
   -3.7290    1.2660  -19.5640 C   0  0  0  0  0  0  0  0  0  0  0  0
   -4.8520    0.4330  -19.3180 C   0  0  0  0  0  0  0  0  0  0  0  0
   -5.3680    0.1920  -18.0230 C   0  0  0  0  0  0  0  0  0  0  0  0
   -6.4080   -0.5920  -17.7690 N   0  0  0  0  0  0  0  0  0  0  0  0
   -7.0120   -1.1790  -18.8120 C   0  0  0  0  0  0  0  0  0  0  0  0
  2  1  2  0
  3  2  1  0
  4  3  1  0
  5  4  1  0
  6  5  1  1
  6  2  1  0
  7  6  1  0
  7  8  1  6
  9  7  1  0
 10  9  1  0
 11 10  1  0
 12 11  2  0
 12  8  1  0
 13 12  1  0
 14 13  2  0
 15 11  1  0
 16 15  2  0
 16 14  1  0
 17 16  1  0
 10 18  1  1
 19 18  2  0
 20 18  1  0
 21 20  1  0
 22 21  1  0
 23 22  2  0
 24 23  1  0
 25 24  2  0
 26 25  1  0
 27 22  1  0
 27 26  2  0
 28 27  1  0
 29 28  2  0
 30 29  1  0
 30 21  2  0
M  CHG  1   7   1
M  END
$$$$

     RDKit          3D

 24 26  0  0  0  0  0  0  0  0999 V2000
  -13.7010   -2.8410  -21.6340 Cl  0  0  0  0  0  0  0  0  0  0  0  0
  -12.3940   -2.1240  -22.5200 C   0  0  0  0  0  0  0  0  0  0  0  0
  -12.6260   -1.1020  -23.4300 C   0  0  0  0  0  0  0  0  0  0  0  0
  -14.2360   -0.6110  -23.8330 Cl  0  0  0  0  0  0  0  0  0  0  0  0
  -11.5610   -0.4470  -24.0160 C   0  0  0  0  0  0  0  0  0  0  0  0
  -10.2680   -0.8250  -23.7070 C   0  0  0  0  0  0  0  0  0  0  0  0
  -11.0990   -2.5140  -22.2290 C   0  0  0  0  0  0  0  0  0  0  0  0
  -10.0220   -1.8590  -22.8150 C   0  0  0  0  0  0  0  0  0  0  0  0
   -8.6110   -2.2560  -22.4520 C   0  0  1  0  0  0  0  0  0  0  0  0
   -7.8150   -2.6890  -23.5520 O   0  0  0  0  0  0  0  0  0  0  0  0
   -7.1690   -1.6170  -24.2500 C   0  0  0  0  0  0  0  0  0  0  0  0
   -7.9650   -1.2490  -21.4960 C   0  0  0  0  0  0  0  0  0  0  0  0
   -8.5020   -0.1610  -21.2740 O   0  0  0  0  0  0  0  0  0  0  0  0
   -6.8480   -1.6790  -20.8720 N   0  0  0  0  0  0  0  0  0  0  0  0
   -6.1860   -1.0660  -19.8020 C   0  0  0  0  0  0  0  0  0  0  0  0
   -5.1340   -0.1450  -20.0870 C   0  0  0  0  0  0  0  0  0  0  0  0
   -4.6550    0.1270  -21.3950 C   0  0  0  0  0  0  0  0  0  0  0  0
   -3.6720    1.0510  -21.6030 C   0  0  0  0  0  0  0  0  0  0  0  0
   -3.1140    1.7430  -20.5370 C   0  0  0  0  0  0  0  0  0  0  0  0
   -3.5400    1.5140  -19.2620 C   0  0  0  0  0  0  0  0  0  0  0  0
   -4.5640    0.5730  -19.0020 C   0  0  0  0  0  0  0  0  0  0  0  0
   -5.0810    0.3220  -17.7090 C   0  0  0  0  0  0  0  0  0  0  0  0
   -6.0530   -0.5380  -17.4470 N   0  0  0  0  0  0  0  0  0  0  0  0
   -6.5760   -1.2150  -18.4740 C   0  0  0  0  0  0  0  0  0  0  0  0
  2  1  1  0
  3  2  2  0
  4  3  1  0
  5  3  1  0
  6  5  2  0
  7  2  1  0
  8  7  2  0
  8  6  1  0
  9  8  1  0
  9 10  1  6
 11 10  1  0
 12  9  1  0
 13 12  2  0
 14 12  1  0
 15 14  1  0
 16 15  1  0
 17 16  2  0
 18 17  1  0
 19 18  2  0
 20 19  1  0
 21 20  2  0
 21 16  1  0
 22 21  1  0
 23 22  2  0
 24 23  1  0
 24 15  2  0
M  END
$$$$

     RDKit          3D

 32 35  0  0  0  0  0  0  0  0999 V2000
   -6.5570   -3.0950  -21.8260 C   0  0  0  0  0  0  0  0  0  0  0  0
   -7.3210   -3.8270  -22.7900 C   0  0  0  0  0  0  0  0  0  0  0  0
   -6.7160   -5.0410  -23.4850 C   0  0  0  0  0  0  0  0  0  0  0  0
   -5.9720   -6.0410  -22.8200 C   0  0  0  0  0  0  0  0  0  0  0  0
   -5.7490   -6.0010  -21.3120 C   0  0  0  0  0  0  0  0  0  0  0  0
   -5.4270   -7.1100  -23.5520 C   0  0  0  0  0  0  0  0  0  0  0  0
   -8.8870   -0.3590  -20.9380 O   0  0  0  0  0  0  0  0  0  0  0  0
   -8.3920   -1.5010  -21.5500 C   0  0  0  0  0  0  0  0  0  0  0  0
   -6.3420   -1.2200  -20.1970 C   0  0  0  0  0  0  0  0  0  0  0  0
   -6.8040   -1.1840  -18.8750 C   0  0  0  0  0  0  0  0  0  0  0  0
   -4.8650    0.1300  -18.2400 C   0  0  0  0  0  0  0  0  0  0  0  0
   -4.4010    0.0940  -19.5680 C   0  0  0  0  0  0  0  0  0  0  0  0
   -5.1370   -0.5940  -20.5460 C   0  0  0  0  0  0  0  0  0  0  0  0
  -12.4700    1.4020  -23.5520 O   0  0  0  0  0  0  0  0  0  0  0  0
   -5.6100   -7.1760  -24.9420 C   0  0  0  0  0  0  0  0  0  0  0  0
   -6.3400   -6.1840  -25.6040 C   0  0  0  0  0  0  0  0  0  0  0  0
   -6.8850   -5.1220  -24.8760 C   0  0  0  0  0  0  0  0  0  0  0  0
   -8.6300   -3.3340  -23.1440 C   0  0  0  0  0  0  0  0  0  0  0  0
   -9.1510   -2.1910  -22.5030 C   0  0  0  0  0  0  0  0  0  0  0  0
  -10.5520   -1.7310  -22.9110 C   0  0  0  0  0  0  0  0  0  0  0  0
  -11.5360   -2.7020  -23.1830 C   0  0  0  0  0  0  0  0  0  0  0  0
  -12.8270   -2.2790  -23.5700 C   0  0  0  0  0  0  0  0  0  0  0  0
  -13.1250   -0.9130  -23.7000 C   0  0  0  0  0  0  0  0  0  0  0  0
  -12.1410    0.0510  -23.4320 C   0  0  0  0  0  0  0  0  0  0  0  0
  -11.5480    2.3160  -23.0450 C   0  0  0  0  0  0  0  0  0  0  0  0
  -12.2080    3.6860  -23.1640 C   0  0  0  0  0  0  0  0  0  0  0  0
  -13.6300    3.5660  -22.6190 C   0  0  0  0  0  0  0  0  0  0  0  0
  -10.8540   -0.3560  -23.0360 C   0  0  0  0  0  0  0  0  0  0  0  0
   -7.1170   -1.9340  -21.2000 N   0  0  0  0  0  0  0  0  0  0  0  0
   -6.0710   -0.5110  -17.8950 N   0  0  0  0  0  0  0  0  0  0  0  0
   -5.5870   -5.9570  -20.1890 N   0  0  0  0  0  0  0  0  0  0  0  0
  -14.0880   -3.4690  -23.9380 Cl  0  0  0  0  0  0  0  0  0  0  0  0
  2  1  2  0
  3  2  1  0
  4  3  2  0
  5  4  1  0
  6  4  1  0
  8  7  2  0
 10  9  2  0
 12 11  1  0
 13  9  1  0
 13 12  2  0
 15  6  2  0
 16 15  1  0
 17 16  2  0
 17  3  1  0
 18  2  1  0
 19 18  2  0
 19  8  1  0
 20 19  1  0
 21 20  2  0
 22 21  1  0
 23 22  2  0
 24 23  1  0
 24 14  1  0
 25 14  1  0
 26 25  1  0
 27 26  1  0
 28 24  2  0
 28 20  1  0
 29  1  1  0
 29  9  1  0
 29  8  1  0
 30 10  1  0
 30 11  2  0
 31  5  3  0
 32 22  1  0
M  END
$$$$

     RDKit          3D

 22 24  0  0  0  0  0  0  0  0999 V2000
  -13.7750   -2.7390  -22.0560 Cl  0  0  0  0  0  0  0  0  0  0  0  0
  -12.3250   -2.1120  -22.7700 C   0  0  0  0  0  0  0  0  0  0  0  0
  -12.3970   -1.2330  -23.8320 C   0  0  0  0  0  0  0  0  0  0  0  0
  -13.6080   -0.7720  -24.2270 F   0  0  0  0  0  0  0  0  0  0  0  0
  -11.0900   -2.5260  -22.3100 C   0  0  0  0  0  0  0  0  0  0  0  0
   -9.9250   -2.0710  -22.9160 C   0  0  0  0  0  0  0  0  0  0  0  0
  -10.0320   -1.2200  -24.0100 C   0  0  0  0  0  0  0  0  0  0  0  0
  -11.2650   -0.7920  -24.4700 C   0  0  0  0  0  0  0  0  0  0  0  0
   -8.5750   -2.4350  -22.3430 C   0  0  0  0  0  0  0  0  0  0  0  0
   -8.0820   -1.3650  -21.3890 C   0  0  0  0  0  0  0  0  0  0  0  0
   -8.3750   -0.1780  -21.5330 O   0  0  0  0  0  0  0  0  0  0  0  0
   -7.4120   -1.8380  -20.3250 N   0  0  0  0  0  0  0  0  0  0  0  0
   -6.4160   -1.2420  -19.5320 C   0  0  0  0  0  0  0  0  0  0  0  0
   -5.4720   -0.3140  -20.0840 C   0  0  0  0  0  0  0  0  0  0  0  0
   -5.1330   -0.2540  -21.4600 C   0  0  0  0  0  0  0  0  0  0  0  0
   -4.1370    0.5720  -21.9090 C   0  0  0  0  0  0  0  0  0  0  0  0
   -3.4350    1.3740  -21.0250 C   0  0  0  0  0  0  0  0  0  0  0  0
   -3.7240    1.3580  -19.6910 C   0  0  0  0  0  0  0  0  0  0  0  0
   -4.7430    0.5120  -19.1830 C   0  0  0  0  0  0  0  0  0  0  0  0
   -5.0070    0.3710  -17.8030 C   0  0  0  0  0  0  0  0  0  0  0  0
   -5.8650   -0.4980  -17.2940 N   0  0  0  0  0  0  0  0  0  0  0  0
   -6.5260   -1.2830  -18.1470 C   0  0  0  0  0  0  0  0  0  0  0  0
  2  1  1  0
  3  2  2  0
  4  3  1  0
  5  2  1  0
  6  5  2  0
  7  6  1  0
  8  3  1  0
  8  7  2  0
  9  6  1  0
 10  9  1  0
 11 10  2  0
 12 10  1  0
 13 12  1  0
 14 13  1  0
 15 14  2  0
 16 15  1  0
 17 16  2  0
 18 17  1  0
 19 14  1  0
 19 18  2  0
 20 19  1  0
 21 20  2  0
 22 21  1  0
 22 13  2  0
M  END
$$$$

     RDKit          3D

 26 30  0  0  0  0  0  0  0  0999 V2000
  -13.8490   -2.7650  -21.2700 Cl  0  0  0  0  0  0  0  0  0  0  0  0
  -12.7390   -2.7150  -22.6160 C   0  0  0  0  0  0  0  0  0  0  0  0
  -11.4800   -2.1880  -22.4170 C   0  0  0  0  0  0  0  0  0  0  0  0
  -13.1490   -3.1820  -23.8520 C   0  0  0  0  0  0  0  0  0  0  0  0
  -12.2790   -3.1090  -24.9250 C   0  0  0  0  0  0  0  0  0  0  0  0
  -11.0180   -2.5600  -24.7330 C   0  0  0  0  0  0  0  0  0  0  0  0
  -10.1810   -2.4940  -25.8230 O   0  0  0  0  0  0  0  0  0  0  0  0
   -8.9000   -1.9050  -25.4760 C   0  0  1  0  0  0  0  0  0  0  0  0
   -9.1390   -0.6130  -24.6750 C   0  0  0  0  0  0  0  0  0  0  0  0
   -8.3860   -2.5770  -24.1920 C   0  0  0  0  0  0  0  0  0  0  0  0
  -10.6060   -2.0980  -23.4940 C   0  0  0  0  0  0  0  0  0  0  0  0
   -9.1960   -1.5060  -23.3970 C   0  0  2  0  0  0  0  0  0  0  0  0
   -8.7750   -0.9700  -22.0170 C   0  0  0  0  0  0  0  0  0  0  0  0
   -9.3180    0.0120  -21.5360 O   0  0  0  0  0  0  0  0  0  0  0  0
   -7.6360   -1.4830  -21.5120 N   0  0  0  0  0  0  0  0  0  0  0  0
   -6.8990   -0.9790  -20.4160 C   0  0  0  0  0  0  0  0  0  0  0  0
   -7.2300   -1.2000  -19.0810 C   0  0  0  0  0  0  0  0  0  0  0  0
   -6.5560   -0.7140  -18.0290 N   0  0  0  0  0  0  0  0  0  0  0  0
   -5.4840    0.0240  -18.2750 C   0  0  0  0  0  0  0  0  0  0  0  0
   -5.0220    0.3490  -19.5730 C   0  0  0  0  0  0  0  0  0  0  0  0
   -3.8920    1.1690  -19.8040 C   0  0  0  0  0  0  0  0  0  0  0  0
   -3.5380    1.4390  -21.0840 C   0  0  0  0  0  0  0  0  0  0  0  0
   -2.4470    2.2240  -21.2970 F   0  0  0  0  0  0  0  0  0  0  0  0
   -5.7520   -0.1680  -20.6830 C   0  0  0  0  0  0  0  0  0  0  0  0
   -5.3080    0.1640  -21.9880 C   0  0  0  0  0  0  0  0  0  0  0  0
   -4.2150    0.9580  -22.1790 C   0  0  0  0  0  0  0  0  0  0  0  0
  2  1  1  0
  3  2  2  0
  4  2  1  0
  5  4  2  0
  6  5  1  0
  7  6  1  0
  8  7  1  0
  8  9  1  1
 10  8  1  0
 11  6  2  0
 11  3  1  0
 12 11  1  0
 12 10  1  0
 12  9  1  0
 12 13  1  1
 14 13  2  0
 15 13  1  0
 16 15  1  0
 17 16  2  0
 18 17  1  0
 19 18  2  0
 20 19  1  0
 21 20  1  0
 22 21  2  0
 23 22  1  0
 24 16  1  0
 24 20  2  0
 25 24  1  0
 26 25  2  0
 26 22  1  0
M  END
$$$$

     RDKit          3D

 25 28  0  0  0  0  0  0  0  0999 V2000
  -13.6490   -2.9700  -21.2340 Cl  0  0  0  0  0  0  0  0  0  0  0  0
  -12.6370   -2.0880  -22.3350 C   0  0  0  0  0  0  0  0  0  0  0  0
  -13.2110   -1.1850  -23.2040 C   0  0  0  0  0  0  0  0  0  0  0  0
  -12.4080   -0.5150  -24.1080 C   0  0  0  0  0  0  0  0  0  0  0  0
  -11.2810   -2.3300  -22.3280 C   0  0  0  0  0  0  0  0  0  0  0  0
  -10.4570   -1.6480  -23.2180 C   0  0  0  0  0  0  0  0  0  0  0  0
  -11.0420   -0.7530  -24.1100 C   0  0  0  0  0  0  0  0  0  0  0  0
  -10.3030   -0.0650  -25.0370 O   0  0  0  0  0  0  0  0  0  0  0  0
   -9.1810   -0.8100  -25.5290 C   0  0  0  0  0  0  0  0  0  0  0  0
   -8.2170   -1.2100  -24.4350 C   0  0  0  0  0  0  0  0  0  0  0  0
   -8.9490   -1.7830  -23.1850 C   0  0  1  0  0  0  0  0  0  0  0  0
   -8.4720   -1.0490  -21.9300 C   0  0  0  0  0  0  0  0  0  0  0  0
   -9.0640   -0.0700  -21.4780 O   0  0  0  0  0  0  0  0  0  0  0  0
   -7.3380   -1.5480  -21.3930 N   0  0  0  0  0  0  0  0  0  0  0  0
   -6.5940   -0.9980  -20.3230 C   0  0  0  0  0  0  0  0  0  0  0  0
   -7.1230   -0.9950  -19.0350 C   0  0  0  0  0  0  0  0  0  0  0  0
   -6.5210   -0.4210  -17.9910 N   0  0  0  0  0  0  0  0  0  0  0  0
   -5.3330    0.1590  -18.1970 C   0  0  0  0  0  0  0  0  0  0  0  0
   -5.3480   -0.3920  -20.5220 C   0  0  0  0  0  0  0  0  0  0  0  0
   -4.4760   -0.2650  -21.6120 N   0  0  0  0  0  0  0  0  0  0  0  0
   -4.7070   -0.6900  -22.9920 C   0  0  0  0  0  0  0  0  0  0  0  0
   -4.7090    0.1880  -19.4400 C   0  0  0  0  0  0  0  0  0  0  0  0
   -3.4760    0.6510  -19.8800 N   0  0  0  0  0  0  0  0  0  0  0  0
   -3.3170    0.3760  -21.2070 C   0  0  0  0  0  0  0  0  0  0  0  0
   -2.3470    0.6190  -21.9100 O   0  0  0  0  0  0  0  0  0  0  0  0
  2  1  1  0
  3  2  2  0
  4  3  1  0
  5  2  1  0
  6  5  2  0
  7  4  2  0
  7  6  1  0
  8  7  1  0
  9  8  1  0
 10  9  1  0
 11 10  1  0
 11  6  1  0
 11 12  1  1
 13 12  2  0
 14 12  1  0
 15 14  1  0
 16 15  2  0
 17 16  1  0
 18 17  2  0
 19 15  1  0
 20 19  1  0
 21 20  1  0
 22 19  2  0
 22 18  1  0
 23 22  1  0
 24 23  1  0
 24 20  1  0
 25 24  2  0
M  END
$$$$

     RDKit          3D

 21 23  0  0  0  0  0  0  0  0999 V2000
   -8.6750   -0.4170  -21.2200 O   0  0  0  0  0  0  0  0  0  0  0  0
   -8.0340   -1.3950  -21.6060 C   0  0  0  0  0  0  0  0  0  0  0  0
   -8.4770   -2.2340  -22.7890 C   0  0  0  0  0  0  0  0  0  0  0  0
   -9.9400   -2.0180  -23.0910 C   0  0  0  0  0  0  0  0  0  0  0  0
  -10.2230   -1.0260  -23.9530 N   0  0  0  0  0  0  0  0  0  0  0  0
  -11.5090   -0.6530  -24.0670 C   0  0  0  0  0  0  0  0  0  0  0  0
  -12.5440   -1.2320  -23.3560 C   0  0  0  0  0  0  0  0  0  0  0  0
  -10.9100   -2.6950  -22.3730 C   0  0  0  0  0  0  0  0  0  0  0  0
  -12.2140   -2.2710  -22.5160 C   0  0  0  0  0  0  0  0  0  0  0  0
  -13.4700   -3.0990  -21.6390 Cl  0  0  0  0  0  0  0  0  0  0  0  0
   -6.8920   -1.7940  -21.0270 N   0  0  0  0  0  0  0  0  0  0  0  0
   -6.2210   -1.1510  -19.9690 C   0  0  0  0  0  0  0  0  0  0  0  0
   -5.0840   -0.3490  -20.2770 C   0  0  0  0  0  0  0  0  0  0  0  0
   -4.5760   -0.1700  -21.5920 C   0  0  0  0  0  0  0  0  0  0  0  0
   -3.5300    0.6780  -21.8280 C   0  0  0  0  0  0  0  0  0  0  0  0
   -2.9360    1.3760  -20.7890 C   0  0  0  0  0  0  0  0  0  0  0  0
   -3.3910    1.2400  -19.5080 C   0  0  0  0  0  0  0  0  0  0  0  0
   -4.4750    0.3770  -19.2180 C   0  0  0  0  0  0  0  0  0  0  0  0
   -5.0370    0.2520  -17.9260 C   0  0  0  0  0  0  0  0  0  0  0  0
   -6.0950   -0.4930  -17.6440 N   0  0  0  0  0  0  0  0  0  0  0  0
   -6.6620   -1.1700  -18.6500 C   0  0  0  0  0  0  0  0  0  0  0  0
  2  1  2  0
  3  2  1  0
  4  3  1  0
  5  4  2  0
  6  5  1  0
  7  6  2  0
  8  4  1  0
  9  8  2  0
  9  7  1  0
 10  9  1  0
 11  2  1  0
 12 11  1  0
 13 12  1  0
 14 13  2  0
 15 14  1  0
 16 15  2  0
 17 16  1  0
 18 17  2  0
 18 13  1  0
 19 18  1  0
 20 19  2  0
 21 20  1  0
 21 12  2  0
M  END
$$$$

     RDKit          3D

 22 24  0  0  0  0  0  0  0  0999 V2000
  -13.2980   -0.7420  -23.5290 F   0  0  0  0  0  0  0  0  0  0  0  0
  -12.0920   -1.3160  -23.8000 C   0  0  0  0  0  0  0  0  0  0  0  0
  -11.8160   -2.5450  -23.2550 C   0  0  0  0  0  0  0  0  0  0  0  0
  -10.6390   -3.1740  -23.6190 C   0  0  0  0  0  0  0  0  0  0  0  0
  -11.2450   -0.6740  -24.6620 C   0  0  0  0  0  0  0  0  0  0  0  0
  -10.0550   -1.2970  -24.9950 C   0  0  0  0  0  0  0  0  0  0  0  0
   -9.7330   -2.5470  -24.4710 C   0  0  0  0  0  0  0  0  0  0  0  0
   -8.3860   -3.1320  -24.7310 C   0  0  0  0  0  0  0  0  0  0  0  0
   -7.8540   -2.9940  -25.8330 O   0  0  0  0  0  0  0  0  0  0  0  0
   -7.6530   -3.8200  -23.6250 C   0  0  0  0  0  0  0  0  0  0  0  0
   -7.5470   -3.4840  -22.2550 C   0  0  0  0  0  0  0  0  0  0  0  0
   -8.0870   -2.2670  -21.5590 C   0  0  0  0  0  0  0  0  0  0  0  0
   -6.9190   -4.9890  -23.8500 N   0  0  0  0  0  0  0  0  0  0  0  0
   -6.6430   -5.6420  -25.0410 C   0  0  0  0  0  0  0  0  0  0  0  0
   -5.8210   -6.7120  -25.0450 C   0  0  0  0  0  0  0  0  0  0  0  0
   -5.2590   -7.1880  -23.8350 C   0  0  0  0  0  0  0  0  0  0  0  0
   -5.5280   -6.5720  -22.6550 C   0  0  0  0  0  0  0  0  0  0  0  0
   -6.3660   -5.4270  -22.6420 C   0  0  0  0  0  0  0  0  0  0  0  0
   -6.7460   -4.5170  -21.6390 C   0  0  0  0  0  0  0  0  0  0  0  0
   -6.3670   -4.6370  -20.2180 C   0  0  0  0  0  0  0  0  0  0  0  0
   -5.5570   -5.4890  -19.8940 O   0  0  0  0  0  0  0  0  0  0  0  0
   -6.9660   -3.7090  -19.1850 C   0  0  0  0  0  0  0  0  0  0  0  0
  2  1  1  0
  3  2  2  0
  4  3  1  0
  5  2  1  0
  6  5  2  0
  7  6  1  0
  7  4  2  0
  8  7  1  0
  9  8  2  0
 10  8  1  0
 11 10  2  0
 12 11  1  0
 13 10  1  0
 14 13  1  0
 15 14  2  0
 16 15  1  0
 17 16  2  0
 18 17  1  0
 18 13  1  0
 19 18  2  0
 19 11  1  0
 20 19  1  0
 21 20  2  0
 22 20  1  0
M  END
$$$$

     RDKit          3D

 33 37  0  0  0  0  0  0  0  0999 V2000
   -8.3080    5.7170  -22.7550 N   0  0  0  0  0  0  0  0  0  0  0  0
   -7.6890    4.7630  -22.8060 C   0  0  0  0  0  0  0  0  0  0  0  0
   -6.9440    3.5010  -22.8600 C   0  0  2  0  0  0  0  0  0  0  0  0
   -5.7440    3.3880  -21.9420 C   0  0  0  0  0  0  0  0  0  0  0  0
   -5.5300    3.5640  -23.3980 C   0  0  0  0  0  0  0  0  0  0  0  0
   -7.8720    2.3190  -23.1220 C   0  0  0  0  0  0  0  0  0  0  0  0
   -8.1120    1.7140  -24.7830 S   0  0  2  0  0  0  0  0  0  0  0  0
   -6.8570    1.2590  -25.2910 O   0  0  0  0  0  0  0  0  0  0  0  0
   -8.8420    2.7010  -25.5140 O   0  0  0  0  0  0  0  0  0  0  0  0
   -9.0730    0.4090  -24.6470 N   0  0  0  0  0  0  0  0  0  0  0  0
   -8.6000   -0.9780  -24.4740 C   0  0  0  0  0  0  0  0  0  0  0  0
  -10.5000    0.5390  -24.9660 C   0  0  0  0  0  0  0  0  0  0  0  0
  -11.3250   -0.2940  -24.0130 C   0  0  0  0  0  0  0  0  0  0  0  0
  -10.7770   -1.3580  -23.2740 C   0  0  0  0  0  0  0  0  0  0  0  0
  -11.6190   -2.1490  -22.4890 C   0  0  0  0  0  0  0  0  0  0  0  0
  -12.9660   -1.8460  -22.4090 C   0  0  0  0  0  0  0  0  0  0  0  0
  -14.0000   -2.8210  -21.4040 Cl  0  0  0  0  0  0  0  0  0  0  0  0
  -13.5060   -0.7790  -23.0890 C   0  0  0  0  0  0  0  0  0  0  0  0
  -12.6850   -0.0150  -23.8960 C   0  0  0  0  0  0  0  0  0  0  0  0
   -9.2720   -1.5740  -23.2350 C   0  0  2  0  0  0  0  0  0  0  0  0
   -8.6860   -0.9130  -21.9850 C   0  0  0  0  0  0  0  0  0  0  0  0
   -9.2110    0.0680  -21.4630 O   0  0  0  0  0  0  0  0  0  0  0  0
   -7.5380   -1.4770  -21.5240 N   0  0  0  0  0  0  0  0  0  0  0  0
   -6.8280   -1.0490  -20.3670 C   0  0  0  0  0  0  0  0  0  0  0  0
   -7.3630   -1.2670  -19.0980 C   0  0  0  0  0  0  0  0  0  0  0  0
   -6.8300   -0.7810  -17.9680 N   0  0  0  0  0  0  0  0  0  0  0  0
   -5.7180   -0.0460  -18.0640 C   0  0  0  0  0  0  0  0  0  0  0  0
   -5.6440   -0.3000  -20.4390 C   0  0  0  0  0  0  0  0  0  0  0  0
   -4.8280    0.0650  -21.4760 N   0  0  0  0  0  0  0  0  0  0  0  0
   -4.9400   -0.2280  -22.9000 C   0  0  0  0  0  0  0  0  0  0  0  0
   -5.0600    0.2370  -19.2680 C   0  0  0  0  0  0  0  0  0  0  0  0
   -3.9070    0.9160  -19.7330 C   0  0  0  0  0  0  0  0  0  0  0  0
   -3.7690    0.8050  -21.0370 N   0  0  0  0  0  0  0  0  0  0  0  0
  2  1  3  0
  3  2  1  1
  4  3  1  0
  5  4  1  0
  5  3  1  0
  6  3  1  0
  7  6  1  1
  8  7  2  0
  9  7  2  0
 10  7  1  0
 11 10  1  0
 12 10  1  0
 13 12  1  0
 14 13  2  0
 15 14  1  0
 16 15  2  0
 17 16  1  0
 18 16  1  0
 19 18  2  0
 19 13  1  0
 20 14  1  0
 20 11  1  0
 20 21  1  1
 22 21  2  0
 23 21  1  0
 24 23  1  0
 25 24  2  0
 26 25  1  0
 27 26  2  0
 28 24  1  0
 29 28  1  0
 30 29  1  0
 31 28  2  0
 31 27  1  0
 32 31  1  0
 33 32  2  0
 33 29  1  0
M  END
$$$$

     RDKit          3D

 30 33  0  0  0  0  0  0  0  0999 V2000
  -13.7450   -2.7800  -21.6460 Cl  0  0  0  0  0  0  0  0  0  0  0  0
  -12.5540   -1.9540  -22.6060 C   0  0  0  0  0  0  0  0  0  0  0  0
  -11.2200   -2.2830  -22.4570 C   0  0  0  0  0  0  0  0  0  0  0  0
  -12.9670   -1.0150  -23.5200 C   0  0  0  0  0  0  0  0  0  0  0  0
  -12.0280   -0.4220  -24.3420 C   0  0  0  0  0  0  0  0  0  0  0  0
  -10.6760   -0.7410  -24.2360 C   0  0  0  0  0  0  0  0  0  0  0  0
   -9.7290   -0.1120  -25.2300 C   0  0  0  0  0  0  0  0  0  0  0  0
   -8.3270   -0.2450  -24.8160 N   0  0  0  0  0  0  0  0  0  0  0  0
   -7.2510    0.9130  -25.0930 S   0  0  1  0  0  0  0  0  0  0  0  0
   -5.9790    0.4220  -24.6700 O   0  0  0  0  0  0  0  0  0  0  0  0
   -7.4320    1.3160  -26.4500 O   0  0  0  0  0  0  0  0  0  0  0  0
   -7.7680    2.1600  -24.1870 N   0  0  0  0  0  0  0  0  0  0  0  0
   -7.1370    2.4810  -22.9020 C   0  0  0  0  0  0  0  0  0  0  0  0
   -6.4130    3.7910  -22.9630 C   0  0  0  0  0  0  0  0  0  0  0  0
  -10.2620   -1.6590  -23.2580 C   0  0  0  0  0  0  0  0  0  0  0  0
   -8.7850   -1.9250  -23.0270 C   0  0  1  0  0  0  0  0  0  0  0  0
   -7.9660   -1.5640  -24.2660 C   0  0  0  0  0  0  0  0  0  0  0  0
   -8.3170   -1.1270  -21.8060 C   0  0  0  0  0  0  0  0  0  0  0  0
   -8.9250   -0.1360  -21.3990 O   0  0  0  0  0  0  0  0  0  0  0  0
   -7.1770   -1.5880  -21.2320 N   0  0  0  0  0  0  0  0  0  0  0  0
   -6.4930   -1.0530  -20.1150 C   0  0  0  0  0  0  0  0  0  0  0  0
   -5.3470   -0.2250  -20.3430 C   0  0  0  0  0  0  0  0  0  0  0  0
   -4.7710   -0.0040  -21.6230 C   0  0  0  0  0  0  0  0  0  0  0  0
   -3.7000    0.8320  -21.7790 C   0  0  0  0  0  0  0  0  0  0  0  0
   -3.1540    1.4930  -20.6850 C   0  0  0  0  0  0  0  0  0  0  0  0
   -3.6590    1.3010  -19.4310 C   0  0  0  0  0  0  0  0  0  0  0  0
   -4.7610    0.4330  -19.2230 C   0  0  0  0  0  0  0  0  0  0  0  0
   -5.3310    0.1920  -17.9450 C   0  0  0  0  0  0  0  0  0  0  0  0
   -6.3800   -0.5950  -17.7320 N   0  0  0  0  0  0  0  0  0  0  0  0
   -6.9360   -1.1900  -18.7980 C   0  0  0  0  0  0  0  0  0  0  0  0
  2  1  1  0
  3  2  2  0
  4  2  1  0
  5  4  2  0
  6  5  1  0
  7  6  1  0
  8  7  1  0
  9  8  1  0
 10  9  2  0
 11  9  2  0
  9 12  1  1
 13 12  1  0
 14 13  1  0
 15  3  1  0
 15  6  2  0
 16 15  1  0
 17 16  1  0
 17  8  1  0
 16 18  1  1
 19 18  2  0
 20 18  1  0
 21 20  1  0
 22 21  1  0
 23 22  2  0
 24 23  1  0
 25 24  2  0
 26 25  1  0
 27 26  2  0
 27 22  1  0
 28 27  1  0
 29 28  2  0
 30 29  1  0
 30 21  2  0
M  END
$$$$

     RDKit          3D

 19 20  0  0  0  0  0  0  0  0999 V2000
   -6.3370   -6.1490  -22.0360 N   0  0  0  0  0  0  0  0  0  0  0  0
   -7.5900   -4.6800  -20.5340 C   0  0  0  0  0  0  0  0  0  0  0  0
   -5.5270   -5.7070  -19.9750 O   0  0  0  0  0  0  0  0  0  0  0  0
   -6.3980   -5.5560  -20.8230 C   0  0  0  0  0  0  0  0  0  0  0  0
   -1.2850   -4.7400  -25.9650 C   0  0  0  0  0  0  0  0  0  0  0  0
   -2.2730   -5.7040  -25.9330 C   0  0  0  0  0  0  0  0  0  0  0  0
   -5.3750   -7.2050  -22.3540 C   0  0  0  0  0  0  0  0  0  0  0  0
   -4.5610   -6.8300  -23.5650 C   0  0  0  0  0  0  0  0  0  0  0  0
   -6.3800   -5.4430  -24.3710 C   0  0  0  0  0  0  0  0  0  0  0  0
   -7.2040   -5.8210  -23.1700 C   0  0  0  0  0  0  0  0  0  0  0  0
   -3.5720   -5.3630  -26.2440 C   0  0  0  0  0  0  0  0  0  0  0  0
   -3.9000   -4.0660  -26.5790 C   0  0  0  0  0  0  0  0  0  0  0  0
   -2.9130   -3.0980  -26.6110 C   0  0  0  0  0  0  0  0  0  0  0  0
   -1.6170   -3.4470  -26.3050 C   0  0  0  0  0  0  0  0  0  0  0  0
   -5.4760   -6.5580  -24.6840 N   0  0  0  0  0  0  0  0  0  0  0  0
   -5.8800   -6.2090  -27.0890 O   0  0  0  0  0  0  0  0  0  0  0  0
   -4.2120   -7.8740  -26.3360 O   0  0  0  0  0  0  0  0  0  0  0  0
   -4.8370   -6.5980  -26.1910 S   0  0  1  0  0  0  0  0  0  0  0  0
   -0.3760   -2.2290  -26.3440 Cl  0  0  0  0  0  0  0  0  0  0  0  0
  4  1  1  0
  4  3  2  0
  4  2  1  0
  6  5  2  0
  7  1  1  0
  8  7  1  0
 10  1  1  0
 10  9  1  0
 11  6  1  0
 12 11  2  0
 13 12  1  0
 14 13  2  0
 14  5  1  0
 15  9  1  0
 15  8  1  0
 18 16  2  0
 18 15  1  1
 18 17  2  0
 18 11  1  0
 19 14  1  0
M  END
$$$$

     RDKit          3D

 24 26  0  0  0  0  0  0  0  0999 V2000
  -13.8750   -2.7350  -21.7500 Cl  0  0  0  0  0  0  0  0  0  0  0  0
  -12.6020   -1.9880  -22.6780 C   0  0  0  0  0  0  0  0  0  0  0  0
  -12.9230   -1.0200  -23.6070 C   0  0  0  0  0  0  0  0  0  0  0  0
  -11.9040   -0.4590  -24.3600 C   0  0  0  0  0  0  0  0  0  0  0  0
  -10.5870   -0.8380  -24.1460 C   0  0  0  0  0  0  0  0  0  0  0  0
  -11.2970   -2.3900  -22.4660 C   0  0  0  0  0  0  0  0  0  0  0  0
  -10.2680   -1.7900  -23.1850 C   0  0  0  0  0  0  0  0  0  0  0  0
   -8.8260   -2.0850  -22.8340 C   0  0  0  0  0  0  0  0  0  0  0  0
   -8.3230   -1.2090  -21.7030 C   0  0  0  0  0  0  0  0  0  0  0  0
   -8.9200   -0.1870  -21.3560 O   0  0  0  0  0  0  0  0  0  0  0  0
   -7.1790   -1.6380  -21.1220 N   0  0  0  0  0  0  0  0  0  0  0  0
   -6.4910   -1.0520  -20.0400 C   0  0  0  0  0  0  0  0  0  0  0  0
   -6.9130   -1.1450  -18.7140 C   0  0  0  0  0  0  0  0  0  0  0  0
   -6.3190   -0.5400  -17.6740 N   0  0  0  0  0  0  0  0  0  0  0  0
   -5.2560    0.2090  -17.9290 C   0  0  0  0  0  0  0  0  0  0  0  0
   -5.3360   -0.2500  -20.3130 C   0  0  0  0  0  0  0  0  0  0  0  0
   -4.7100    0.4080  -19.2200 C   0  0  0  0  0  0  0  0  0  0  0  0
   -3.5900    1.2340  -19.4680 C   0  0  0  0  0  0  0  0  0  0  0  0
   -3.0990    1.3960  -20.7290 C   0  0  0  0  0  0  0  0  0  0  0  0
   -4.8010   -0.0630  -21.6110 C   0  0  0  0  0  0  0  0  0  0  0  0
   -3.6800    0.7490  -21.8350 C   0  0  0  0  0  0  0  0  0  0  0  0
   -3.1370    0.8850  -23.1030 N   0  0  0  0  0  0  0  0  0  0  0  0
   -3.6070    0.0740  -24.2190 C   0  0  0  0  0  0  0  0  0  0  0  0
   -2.3000    2.0270  -23.4470 C   0  0  0  0  0  0  0  0  0  0  0  0
  2  1  1  0
  3  2  2  0
  4  3  1  0
  5  4  2  0
  6  2  1  0
  7  6  2  0
  7  5  1  0
  8  7  1  0
  9  8  1  0
 10  9  2  0
 11  9  1  0
 12 11  1  0
 13 12  2  0
 14 13  1  0
 15 14  2  0
 16 12  1  0
 17 16  2  0
 17 15  1  0
 18 17  1  0
 19 18  2  0
 20 16  1  0
 21 20  2  0
 21 19  1  0
 22 21  1  0
 23 22  1  0
 24 22  1  0
M  END
$$$$

     RDKit          3D

 26 28  0  0  0  0  0  0  0  0999 V2000
   -5.6490   -4.2260  -20.9080 O   0  0  0  0  0  0  0  0  0  0  0  0
   -6.3630   -3.4940  -21.5800 C   0  0  0  0  0  0  0  0  0  0  0  0
   -6.4140   -3.5830  -22.9260 N   0  0  0  0  0  0  0  0  0  0  0  0
   -6.6240   -4.8150  -23.6580 C   0  0  0  0  0  0  0  0  0  0  0  0
   -5.6170   -5.9010  -23.4500 C   0  0  0  0  0  0  0  0  0  0  0  0
   -4.4670   -6.1650  -24.1300 C   0  0  0  0  0  0  0  0  0  0  0  0
   -5.8460   -6.9290  -22.5940 N   0  0  0  0  0  0  0  0  0  0  0  0
   -4.9020   -7.8260  -22.7390 N   0  0  0  0  0  0  0  0  0  0  0  0
   -4.0640   -7.3640  -23.6870 N   0  0  0  0  0  0  0  0  0  0  0  0
   -2.9240   -8.1440  -24.1530 C   0  0  0  0  0  0  0  0  0  0  0  0
   -7.2100   -2.5930  -20.9960 N   0  0  0  0  0  0  0  0  0  0  0  0
   -7.1800   -2.4170  -19.5390 C   0  0  0  0  0  0  0  0  0  0  0  0
   -6.3530   -1.2330  -19.0940 C   0  0  0  0  0  0  0  0  0  0  0  0
   -6.5740   -0.6150  -17.8760 C   0  0  0  0  0  0  0  0  0  0  0  0
   -5.8700    0.4330  -17.4280 N   0  0  0  0  0  0  0  0  0  0  0  0
   -4.8980    0.9030  -18.2210 C   0  0  0  0  0  0  0  0  0  0  0  0
   -4.6060    0.3700  -19.4560 C   0  0  0  0  0  0  0  0  0  0  0  0
   -5.3440   -0.7150  -19.8910 C   0  0  0  0  0  0  0  0  0  0  0  0
   -8.2820   -1.8770  -21.7080 C   0  0  0  0  0  0  0  0  0  0  0  0
   -9.2370   -2.8130  -22.4500 C   0  0  0  0  0  0  0  0  0  0  0  0
  -10.5120   -2.1500  -22.9120 C   0  0  0  0  0  0  0  0  0  0  0  0
  -11.7330   -2.5100  -22.3570 C   0  0  0  0  0  0  0  0  0  0  0  0
  -12.9040   -1.8760  -22.7440 C   0  0  0  0  0  0  0  0  0  0  0  0
  -12.8690   -0.8860  -23.7050 C   0  0  0  0  0  0  0  0  0  0  0  0
  -11.6650   -0.5350  -24.2840 C   0  0  0  0  0  0  0  0  0  0  0  0
  -10.4930   -1.1610  -23.8880 C   0  0  0  0  0  0  0  0  0  0  0  0
  2  1  2  0
  3  2  1  0
  4  3  1  0
  5  4  1  0
  6  5  2  0
  7  5  1  0
  8  7  2  0
  9  8  1  0
  9  6  1  0
 10  9  1  0
 11  2  1  0
 12 11  1  0
 13 12  1  0
 14 13  2  0
 15 14  1  0
 16 15  2  0
 17 16  1  0
 18 13  1  0
 18 17  2  0
 19 11  1  0
 20 19  1  0
 21 20  1  0
 22 21  2  0
 23 22  1  0
 24 23  2  0
 25 24  1  0
 26 25  2  0
 26 21  1  0
M  END
$$$$

     RDKit          3D

 27 30  0  0  0  0  0  0  0  0999 V2000
   -3.6860    1.3480  -23.2080 F   0  0  0  0  0  0  0  0  0  0  0  0
   -4.1370    1.0460  -21.9640 C   0  0  0  0  0  0  0  0  0  0  0  0
   -3.4130    1.5010  -20.8880 C   0  0  0  0  0  0  0  0  0  0  0  0
   -3.8270    1.1800  -19.6320 C   0  0  0  0  0  0  0  0  0  0  0  0
   -5.2620    0.2930  -21.8510 C   0  0  0  0  0  0  0  0  0  0  0  0
   -5.7190   -0.0670  -20.5570 C   0  0  0  0  0  0  0  0  0  0  0  0
   -4.9870    0.3950  -19.4270 C   0  0  0  0  0  0  0  0  0  0  0  0
   -5.4690    0.0530  -18.1400 C   0  0  0  0  0  0  0  0  0  0  0  0
   -6.5640   -0.6610  -17.9200 N   0  0  0  0  0  0  0  0  0  0  0  0
   -7.2420   -1.0980  -18.9890 C   0  0  0  0  0  0  0  0  0  0  0  0
   -6.8920   -0.8530  -20.3200 C   0  0  0  0  0  0  0  0  0  0  0  0
   -7.6660   -1.2830  -21.4220 N   0  0  0  0  0  0  0  0  0  0  0  0
   -8.8400   -0.7470  -21.8320 C   0  0  0  0  0  0  0  0  0  0  0  0
   -9.3670    0.2150  -21.2870 O   0  0  0  0  0  0  0  0  0  0  0  0
   -9.5010   -1.3710  -23.1010 C   0  0  1  0  0  0  0  0  0  0  0  0
   -8.9660   -2.6860  -23.2640 O   0  0  0  0  0  0  0  0  0  0  0  0
   -9.6300   -3.7650  -22.5930 C   0  0  0  0  0  0  0  0  0  0  0  0
  -11.0160   -1.3030  -23.1170 C   0  0  0  0  0  0  0  0  0  0  0  0
  -11.7770   -1.8810  -22.1030 C   0  0  0  0  0  0  0  0  0  0  0  0
  -13.1480   -1.7020  -22.0960 C   0  0  0  0  0  0  0  0  0  0  0  0
  -14.1060   -2.5880  -20.9450 Cl  0  0  0  0  0  0  0  0  0  0  0  0
  -13.7830   -0.9070  -23.0260 C   0  0  0  0  0  0  0  0  0  0  0  0
  -13.0400   -0.3190  -24.0340 C   0  0  0  0  0  0  0  0  0  0  0  0
  -11.6730   -0.5400  -24.0870 C   0  0  0  0  0  0  0  0  0  0  0  0
  -11.0230   -0.0110  -25.1730 O   0  0  0  0  0  0  0  0  0  0  0  0
   -9.6790    0.4200  -24.8920 C   0  0  0  0  0  0  0  0  0  0  0  0
   -8.8260   -0.6830  -24.3000 C   0  0  0  0  0  0  0  0  0  0  0  0
  2  1  1  0
  3  2  2  0
  4  3  1  0
  5  2  1  0
  6  5  2  0
  7  6  1  0
  7  4  2  0
  8  7  1  0
  9  8  2  0
 10  9  1  0
 11 10  2  0
 11  6  1  0
 12 11  1  0
 13 12  1  0
 14 13  2  0
 15 13  1  0
 15 16  1  6
 17 16  1  0
 18 15  1  0
 19 18  2  0
 20 19  1  0
 21 20  1  0
 22 20  2  0
 23 22  1  0
 24 23  2  0
 24 18  1  0
 25 24  1  0
 26 25  1  0
 27 26  1  0
 27 15  1  0
M  END
$$$$

     RDKit          3D

 22 24  0  0  0  0  0  0  0  0999 V2000
  -13.7390    5.6940  -22.9700 O   0  0  0  0  0  0  0  0  0  0  0  0
  -13.4450    4.5210  -23.1710 C   0  0  0  0  0  0  0  0  0  0  0  0
  -13.9600    3.4120  -24.0750 C   0  0  0  0  0  0  0  0  0  0  0  0
  -12.5610    3.7020  -22.5740 N   0  0  0  0  0  0  0  0  0  0  0  0
  -13.2030    2.4750  -23.1230 C   0  0  2  0  0  0  0  0  0  0  0  0
  -12.2550    1.6940  -23.8980 O   0  0  0  0  0  0  0  0  0  0  0  0
  -12.0800    0.4190  -23.4060 C   0  0  0  0  0  0  0  0  0  0  0  0
  -13.1010   -0.5040  -23.5520 C   0  0  0  0  0  0  0  0  0  0  0  0
  -12.9120   -1.7990  -23.0960 C   0  0  0  0  0  0  0  0  0  0  0  0
  -11.7150   -2.1710  -22.5030 C   0  0  0  0  0  0  0  0  0  0  0  0
  -10.8840    0.0720  -22.7940 C   0  0  0  0  0  0  0  0  0  0  0  0
  -10.7040   -1.2310  -22.3350 C   0  0  0  0  0  0  0  0  0  0  0  0
   -9.5110   -1.6640  -21.7120 N   0  0  0  0  0  0  0  0  0  0  0  0
   -8.4140   -0.9410  -21.3980 C   0  0  0  0  0  0  0  0  0  0  0  0
   -8.4010    0.2840  -21.3160 O   0  0  0  0  0  0  0  0  0  0  0  0
   -7.1750   -1.7720  -21.1410 C   0  0  0  0  0  0  0  0  0  0  0  0
   -6.2870   -1.1960  -20.0620 C   0  0  0  0  0  0  0  0  0  0  0  0
   -6.7030   -1.1570  -18.7410 C   0  0  0  0  0  0  0  0  0  0  0  0
   -6.1400   -0.3790  -17.8110 N   0  0  0  0  0  0  0  0  0  0  0  0
   -5.1330    0.3850  -18.2350 C   0  0  0  0  0  0  0  0  0  0  0  0
   -4.6500    0.4580  -19.4770 N   0  0  0  0  0  0  0  0  0  0  0  0
   -5.2460   -0.3380  -20.3720 C   0  0  0  0  0  0  0  0  0  0  0  0
  2  1  2  0
  3  2  1  0
  4  2  1  0
  5  4  1  0
  5  3  1  0
  5  6  1  6
  7  6  1  0
  8  7  2  0
  9  8  1  0
 10  9  2  0
 11  7  1  0
 12 10  1  0
 12 11  2  0
 13 12  1  0
 14 13  1  0
 15 14  2  0
 16 14  1  0
 17 16  1  0
 18 17  2  0
 19 18  1  0
 20 19  2  0
 21 20  1  0
 22 17  1  0
 22 21  2  0
M  END
$$$$

     RDKit          3D

 13 14  0  0  0  0  0  0  0  0999 V2000
   -9.2220    0.7080  -22.5800 C   0  0  0  0  0  0  0  0  0  0  0  0
   -8.7950    0.0460  -23.9330 C   0  0  1  0  0  0  0  0  0  0  0  0
   -7.4650   -0.0110  -24.0580 C   0  0  0  0  0  0  0  0  0  0  0  0
   -7.0380   -1.5040  -23.6210 C   0  0  0  0  0  0  0  0  0  0  0  0
   -8.3930   -2.2330  -23.3030 C   0  0  0  0  0  0  0  0  0  0  0  0
   -9.3220   -1.5320  -24.0070 C   0  0  1  0  0  0  0  0  0  0  0  0
  -10.7570   -1.6540  -23.4370 C   0  0  0  0  0  0  0  0  0  0  0  0
  -11.7810   -0.7630  -23.8430 C   0  0  0  0  0  0  0  0  0  0  0  0
  -13.0410   -1.0040  -23.2420 C   0  0  0  0  0  0  0  0  0  0  0  0
  -11.1250   -2.6480  -22.5100 C   0  0  0  0  0  0  0  0  0  0  0  0
  -10.0480    1.9240  -22.6130 N   0  0  0  0  0  0  0  0  0  0  0  0
   -8.8950    0.2290  -21.5150 O   0  0  0  0  0  0  0  0  0  0  0  0
  -12.8280   -2.3810  -22.1830 S   0  0  0  0  0  0  0  0  0  0  0  0
  2  1  1  1
  3  2  1  0
  4  3  1  0
  5  4  1  0
  6  5  1  0
  6  2  1  0
  6  7  1  1
  8  7  1  0
  9  8  2  0
 10  7  2  0
 11  1  1  0
 12  1  2  0
 13 10  1  0
 13  9  1  0
M  END
$$$$

     RDKit          3D

 26 29  0  0  0  0  0  0  0  0999 V2000
  -13.6420   -2.8900  -21.6180 Cl  0  0  0  0  0  0  0  0  0  0  0  0
  -12.3320   -2.2290  -22.5400 C   0  0  0  0  0  0  0  0  0  0  0  0
  -12.5540   -1.2740  -23.5260 C   0  0  0  0  0  0  0  0  0  0  0  0
  -14.1630   -0.7820  -23.9490 Cl  0  0  0  0  0  0  0  0  0  0  0  0
  -11.4890   -0.7160  -24.2080 C   0  0  0  0  0  0  0  0  0  0  0  0
  -11.0420   -2.6230  -22.2370 C   0  0  0  0  0  0  0  0  0  0  0  0
   -9.9520   -2.0580  -22.8940 C   0  0  0  0  0  0  0  0  0  0  0  0
  -10.1860   -1.1050  -23.9010 C   0  0  0  0  0  0  0  0  0  0  0  0
   -9.1300   -0.5640  -24.6120 N   0  0  0  0  0  0  0  0  0  0  0  0
   -7.7400   -0.9680  -24.4090 C   0  0  0  0  0  0  0  0  0  0  0  0
   -7.6690   -2.3620  -23.8090 C   0  0  0  0  0  0  0  0  0  0  0  0
   -8.5320   -2.4340  -22.5230 C   0  0  1  0  0  0  0  0  0  0  0  0
   -8.0690   -1.4430  -21.4520 C   0  0  0  0  0  0  0  0  0  0  0  0
   -8.7920   -0.5290  -21.0490 O   0  0  0  0  0  0  0  0  0  0  0  0
   -6.7810   -1.5690  -21.0880 N   0  0  0  0  0  0  0  0  0  0  0  0
   -6.1280   -1.1050  -19.9380 C   0  0  0  0  0  0  0  0  0  0  0  0
   -6.6480   -1.1110  -18.6450 C   0  0  0  0  0  0  0  0  0  0  0  0
   -6.1420   -0.4460  -17.5980 N   0  0  0  0  0  0  0  0  0  0  0  0
   -5.0840    0.3130  -17.8140 C   0  0  0  0  0  0  0  0  0  0  0  0
   -4.9930   -0.2670  -20.1710 C   0  0  0  0  0  0  0  0  0  0  0  0
   -4.4940   -0.0030  -21.4730 C   0  0  0  0  0  0  0  0  0  0  0  0
   -3.5590    0.9650  -21.6330 C   0  0  0  0  0  0  0  0  0  0  0  0
   -3.1880    1.2940  -22.8960 F   0  0  0  0  0  0  0  0  0  0  0  0
   -4.4680    0.4740  -19.0770 C   0  0  0  0  0  0  0  0  0  0  0  0
   -3.4590    1.4350  -19.3240 C   0  0  0  0  0  0  0  0  0  0  0  0
   -3.0160    1.6740  -20.5910 C   0  0  0  0  0  0  0  0  0  0  0  0
  2  1  1  0
  3  2  2  0
  4  3  1  0
  5  3  1  0
  6  2  1  0
  7  6  2  0
  8  5  2  0
  8  7  1  0
  9  8  1  0
 10  9  1  0
 11 10  1  0
 12 11  1  0
 12  7  1  0
 12 13  1  1
 14 13  2  0
 15 13  1  0
 16 15  1  0
 17 16  2  0
 18 17  1  0
 19 18  2  0
 20 16  1  0
 21 20  2  0
 22 21  1  0
 23 22  1  0
 24 20  1  0
 24 19  1  0
 25 24  2  0
 26 25  1  0
 26 22  2  0
M  END
$$$$

     RDKit          3D

 25 28  0  0  0  0  0  0  0  0999 V2000
  -13.6480   -3.0250  -21.5720 Cl  0  0  0  0  0  0  0  0  0  0  0  0
  -12.4370   -2.2450  -22.5300 C   0  0  0  0  0  0  0  0  0  0  0  0
  -12.8030   -1.3540  -23.5170 C   0  0  0  0  0  0  0  0  0  0  0  0
  -14.1170   -1.1600  -23.7700 F   0  0  0  0  0  0  0  0  0  0  0  0
  -11.0980   -2.4560  -22.2640 C   0  0  0  0  0  0  0  0  0  0  0  0
  -10.1170   -1.7690  -22.9750 C   0  0  0  0  0  0  0  0  0  0  0  0
  -10.5290   -0.8670  -23.9660 C   0  0  0  0  0  0  0  0  0  0  0  0
  -11.8710   -0.6530  -24.2390 C   0  0  0  0  0  0  0  0  0  0  0  0
   -8.6440   -2.0100  -22.7180 C   0  0  1  0  0  0  0  0  0  0  0  0
   -7.8410   -1.6400  -23.9720 C   0  0  0  0  0  0  0  0  0  0  0  0
   -8.2410   -0.2630  -24.4430 C   0  0  0  0  0  0  0  0  0  0  0  0
   -9.6510   -0.1640  -24.7600 O   0  0  0  0  0  0  0  0  0  0  0  0
   -8.2060   -1.1550  -21.5260 C   0  0  0  0  0  0  0  0  0  0  0  0
   -8.7610   -0.0970  -21.2380 O   0  0  0  0  0  0  0  0  0  0  0  0
   -7.1510   -1.6520  -20.8460 N   0  0  0  0  0  0  0  0  0  0  0  0
   -6.4070   -1.0350  -19.8240 C   0  0  0  0  0  0  0  0  0  0  0  0
   -5.3220   -0.1780  -20.1880 C   0  0  0  0  0  0  0  0  0  0  0  0
   -4.8770    0.0100  -21.5260 C   0  0  0  0  0  0  0  0  0  0  0  0
   -3.8270    0.8400  -21.8060 C   0  0  0  0  0  0  0  0  0  0  0  0
   -3.1700    1.5220  -20.7870 C   0  0  0  0  0  0  0  0  0  0  0  0
   -3.5630    1.3770  -19.4840 C   0  0  0  0  0  0  0  0  0  0  0  0
   -4.6420    0.5200  -19.1510 C   0  0  0  0  0  0  0  0  0  0  0  0
   -5.0780    0.3050  -17.8210 C   0  0  0  0  0  0  0  0  0  0  0  0
   -6.0790   -0.4950  -17.4840 N   0  0  0  0  0  0  0  0  0  0  0  0
   -6.7140   -1.1440  -18.4690 C   0  0  0  0  0  0  0  0  0  0  0  0
  2  1  1  0
  3  2  2  0
  4  3  1  0
  5  2  1  0
  6  5  2  0
  7  6  1  0
  8  3  1  0
  8  7  2  0
  9  6  1  0
 10  9  1  0
 11 10  1  0
 12 11  1  0
 12  7  1  0
  9 13  1  1
 14 13  2  0
 15 13  1  0
 16 15  1  0
 17 16  1  0
 18 17  2  0
 19 18  1  0
 20 19  2  0
 21 20  1  0
 22 21  2  0
 22 17  1  0
 23 22  1  0
 24 23  2  0
 25 24  1  0
 25 16  2  0
M  END
$$$$

     RDKit          3D

 27 30  0  0  0  0  0  0  0  0999 V2000
  -14.0060   -2.7990  -21.4340 Cl  0  0  0  0  0  0  0  0  0  0  0  0
  -12.7520   -2.0440  -22.3780 C   0  0  0  0  0  0  0  0  0  0  0  0
  -11.4390   -2.4010  -22.1500 C   0  0  0  0  0  0  0  0  0  0  0  0
  -13.0920   -1.0890  -23.3130 C   0  0  0  0  0  0  0  0  0  0  0  0
  -12.0930   -0.4890  -24.0580 C   0  0  0  0  0  0  0  0  0  0  0  0
  -10.7630   -0.8560  -23.8720 C   0  0  0  0  0  0  0  0  0  0  0  0
   -9.7560   -0.4040  -24.7660 N   0  0  0  0  0  0  0  0  0  0  0  0
  -10.0050    0.2560  -25.9340 C   0  0  0  0  0  0  0  0  0  0  0  0
  -10.3970   -0.3510  -26.9210 O   0  0  0  0  0  0  0  0  0  0  0  0
   -9.7710    1.7370  -25.9460 C   0  0  0  0  0  0  0  0  0  0  0  0
  -10.4230   -1.7950  -22.8820 C   0  0  0  0  0  0  0  0  0  0  0  0
   -8.9790   -2.1300  -22.5690 C   0  0  1  0  0  0  0  0  0  0  0  0
   -8.1620   -2.0470  -23.8670 C   0  0  0  0  0  0  0  0  0  0  0  0
   -8.3360   -0.6630  -24.4720 C   0  0  0  0  0  0  0  0  0  0  0  0
   -8.4170   -1.1920  -21.4990 C   0  0  0  0  0  0  0  0  0  0  0  0
   -8.9690   -0.1340  -21.1950 O   0  0  0  0  0  0  0  0  0  0  0  0
   -7.2750   -1.6270  -20.9190 N   0  0  0  0  0  0  0  0  0  0  0  0
   -6.5450   -1.0150  -19.8830 C   0  0  0  0  0  0  0  0  0  0  0  0
   -5.4500   -0.1660  -20.2280 C   0  0  0  0  0  0  0  0  0  0  0  0
   -5.0150    0.0600  -21.5590 C   0  0  0  0  0  0  0  0  0  0  0  0
   -3.9840    0.9140  -21.8270 C   0  0  0  0  0  0  0  0  0  0  0  0
   -3.3320    1.5820  -20.7980 C   0  0  0  0  0  0  0  0  0  0  0  0
   -3.7110    1.3960  -19.4990 C   0  0  0  0  0  0  0  0  0  0  0  0
   -4.7750    0.5180  -19.1790 C   0  0  0  0  0  0  0  0  0  0  0  0
   -5.2320    0.3030  -17.8570 C   0  0  0  0  0  0  0  0  0  0  0  0
   -6.2480   -0.4860  -17.5360 N   0  0  0  0  0  0  0  0  0  0  0  0
   -6.8750   -1.1240  -18.5310 C   0  0  0  0  0  0  0  0  0  0  0  0
  2  1  1  0
  3  2  2  0
  4  2  1  0
  5  4  2  0
  6  5  1  0
  7  6  1  0
  8  7  1  0
  9  8  2  0
 10  8  1  0
 11  3  1  0
 11  6  2  0
 12 11  1  0
 13 12  1  0
 14 13  1  0
 14  7  1  0
 12 15  1  1
 16 15  2  0
 17 15  1  0
 18 17  1  0
 19 18  1  0
 20 19  2  0
 21 20  1  0
 22 21  2  0
 23 22  1  0
 24 19  1  0
 24 23  2  0
 25 24  1  0
 26 25  2  0
 27 26  1  0
 27 18  2  0
M  END
$$$$

     RDKit          3D

 30 33  0  0  0  0  0  0  0  0999 V2000
  -10.4090    0.7460  -24.3840 C   0  0  0  0  0  0  0  0  0  0  0  0
   -9.1060    0.3720  -24.6040 N   0  0  2  0  0  0  0  0  0  0  0  0
   -8.2540    1.2040  -25.4320 C   0  0  0  0  0  0  0  0  0  0  0  0
   -7.5940    2.4010  -24.7690 C   0  0  0  0  0  0  0  0  0  0  0  0
   -6.8930    3.1690  -25.4260 O   0  0  0  0  0  0  0  0  0  0  0  0
   -7.7680    2.5440  -23.4590 N   0  0  0  0  0  0  0  0  0  0  0  0
   -6.9510    3.4390  -22.6600 C   0  0  0  0  0  0  0  0  0  0  0  0
  -11.2430   -0.2010  -23.6310 C   0  0  0  0  0  0  0  0  0  0  0  0
  -12.6000    0.0750  -23.4600 C   0  0  0  0  0  0  0  0  0  0  0  0
  -13.4100   -0.8050  -22.7710 C   0  0  0  0  0  0  0  0  0  0  0  0
  -12.8610   -1.9580  -22.2540 C   0  0  0  0  0  0  0  0  0  0  0  0
  -13.9000   -3.1110  -21.4650 Cl  0  0  0  0  0  0  0  0  0  0  0  0
  -11.5120   -2.2400  -22.3750 C   0  0  0  0  0  0  0  0  0  0  0  0
  -10.6790   -1.3440  -23.0490 C   0  0  0  0  0  0  0  0  0  0  0  0
   -9.1830   -1.5820  -23.1130 C   0  0  1  0  0  0  0  0  0  0  0  0
   -8.6310   -1.0030  -24.4150 C   0  0  0  0  0  0  0  0  0  0  0  0
   -8.5330   -0.8310  -21.9470 C   0  0  0  0  0  0  0  0  0  0  0  0
   -9.0500    0.1620  -21.4380 O   0  0  0  0  0  0  0  0  0  0  0  0
   -7.3390   -1.3330  -21.5350 N   0  0  0  0  0  0  0  0  0  0  0  0
   -6.5470   -0.8780  -20.4530 C   0  0  0  0  0  0  0  0  0  0  0  0
   -5.3600   -0.0920  -20.6490 C   0  0  0  0  0  0  0  0  0  0  0  0
   -4.7300    0.1770  -21.9170 C   0  0  0  0  0  0  0  0  0  0  0  0
   -5.1600   -0.4230  -23.2320 C   0  0  0  0  0  0  0  0  0  0  0  0
   -3.6230    0.9990  -21.9500 C   0  0  0  0  0  0  0  0  0  0  0  0
   -3.0800    1.5640  -20.8110 C   0  0  0  0  0  0  0  0  0  0  0  0
   -3.6270    1.3110  -19.5920 C   0  0  0  0  0  0  0  0  0  0  0  0
   -4.7630    0.4770  -19.4750 C   0  0  0  0  0  0  0  0  0  0  0  0
   -5.3520    0.1800  -18.2190 C   0  0  0  0  0  0  0  0  0  0  0  0
   -6.4260   -0.5730  -18.0520 N   0  0  0  0  0  0  0  0  0  0  0  0
   -6.9990   -1.0790  -19.1500 C   0  0  0  0  0  0  0  0  0  0  0  0
  2  1  1  0
  2  3  1  6
  4  3  1  0
  5  4  2  0
  6  4  1  0
  7  6  1  0
  8  1  1  0
  9  8  2  0
 10  9  1  0
 11 10  2  0
 12 11  1  0
 13 11  1  0
 14 13  2  0
 14  8  1  0
 15 14  1  0
 16 15  1  0
 16  2  1  0
 15 17  1  1
 18 17  2  0
 19 17  1  0
 20 19  1  0
 21 20  1  0
 22 21  2  0
 23 22  1  0
 24 22  1  0
 25 24  2  0
 26 25  1  0
 27 26  2  0
 27 21  1  0
 28 27  1  0
 29 28  2  0
 30 29  1  0
 30 20  2  0
M  CHG  1   2   1
M  END
$$$$

     RDKit          3D

 28 31  0  0  0  0  0  0  0  0999 V2000
   -8.8610    0.1820  -21.5120 O   0  0  0  0  0  0  0  0  0  0  0  0
   -8.6850   -0.9610  -21.9250 C   0  0  0  0  0  0  0  0  0  0  0  0
   -7.6180   -1.8570  -21.2950 C   0  0  0  0  0  0  0  0  0  0  0  0
   -6.9500   -1.1970  -20.1960 N   0  0  0  0  0  0  0  0  0  0  0  0
   -5.8760   -0.3600  -20.2170 C   0  0  0  0  0  0  0  0  0  0  0  0
   -5.0790    0.1540  -21.2300 C   0  0  0  0  0  0  0  0  0  0  0  0
   -4.0310    0.9910  -20.8630 C   0  0  0  0  0  0  0  0  0  0  0  0
   -3.7990    1.3040  -19.5280 C   0  0  0  0  0  0  0  0  0  0  0  0
   -4.6050    0.7870  -18.5230 C   0  0  0  0  0  0  0  0  0  0  0  0
   -5.6570   -0.0510  -18.8780 C   0  0  0  0  0  0  0  0  0  0  0  0
   -6.6070   -0.6980  -18.1180 N   0  0  0  0  0  0  0  0  0  0  0  0
   -7.3740   -1.3820  -18.9210 N   0  0  0  0  0  0  0  0  0  0  0  0
   -9.4240   -1.4910  -22.9340 N   0  0  0  0  0  0  0  0  0  0  0  0
   -9.2800   -2.9240  -23.3630 C   0  0  0  0  0  0  0  0  0  0  0  0
   -8.3580   -3.1340  -24.5420 C   0  0  0  0  0  0  0  0  0  0  0  0
  -10.6380   -0.7350  -23.3440 C   0  0  1  0  0  0  0  0  0  0  0  0
  -10.3280    0.3970  -24.3140 C   0  0  0  0  0  0  0  0  0  0  0  0
   -9.2840    0.2890  -25.2220 C   0  0  0  0  0  0  0  0  0  0  0  0
   -8.9440    1.3550  -26.0390 C   0  0  0  0  0  0  0  0  0  0  0  0
   -9.6440    2.5390  -25.9620 C   0  0  0  0  0  0  0  0  0  0  0  0
  -10.6920    2.6550  -25.0770 C   0  0  0  0  0  0  0  0  0  0  0  0
  -11.0370    1.5880  -24.2610 C   0  0  0  0  0  0  0  0  0  0  0  0
  -11.8110   -1.6360  -23.7110 C   0  0  0  0  0  0  0  0  0  0  0  0
  -12.8120   -1.8650  -22.7800 C   0  0  0  0  0  0  0  0  0  0  0  0
  -13.8500   -2.7370  -23.0590 C   0  0  0  0  0  0  0  0  0  0  0  0
  -13.9190   -3.3660  -24.2770 C   0  0  0  0  0  0  0  0  0  0  0  0
  -12.9530   -3.1280  -25.2230 C   0  0  0  0  0  0  0  0  0  0  0  0
  -11.9010   -2.2700  -24.9430 C   0  0  0  0  0  0  0  0  0  0  0  0
  2  1  2  0
  3  2  1  0
  4  3  1  0
  5  4  1  0
  6  5  2  0
  7  6  1  0
  8  7  2  0
  9  8  1  0
 10  5  1  0
 10  9  2  0
 11 10  1  0
 12 11  2  0
 12  4  1  0
 13  2  1  0
 14 13  1  0
 15 14  1  0
 16 13  1  6
 17 16  1  0
 18 17  2  0
 19 18  1  0
 20 19  2  0
 21 20  1  0
 22 21  2  0
 22 17  1  0
 23 16  1  0
 24 23  2  0
 25 24  1  0
 26 25  2  0
 27 26  1  0
 28 27  2  0
 28 23  1  0
M  END
$$$$

     RDKit          3D

 27 29  0  0  0  0  0  0  0  0999 V2000
   -2.6630   -0.2390  -24.0400 O   0  0  0  0  0  0  0  0  0  0  0  0
   -2.6780    1.1810  -24.2050 S   0  0  2  0  0  0  0  0  0  0  0  0
   -2.9470    1.7220  -25.4980 O   0  0  0  0  0  0  0  0  0  0  0  0
   -1.1480    1.8270  -23.6420 C   0  0  0  0  0  0  0  0  0  0  0  0
   -3.8450    1.7590  -23.2080 N   0  0  0  0  0  0  0  0  0  0  0  0
   -4.4280    3.0720  -23.5200 C   0  0  0  0  0  0  0  0  0  0  0  0
   -4.0480    1.1680  -21.9010 C   0  0  0  0  0  0  0  0  0  0  0  0
   -5.0510    0.2190  -21.7180 C   0  0  0  0  0  0  0  0  0  0  0  0
   -5.4630   -0.1680  -20.4180 C   0  0  0  0  0  0  0  0  0  0  0  0
   -4.8070    0.4170  -19.2980 C   0  0  0  0  0  0  0  0  0  0  0  0
   -3.7580    1.3400  -19.5210 C   0  0  0  0  0  0  0  0  0  0  0  0
   -3.3890    1.6930  -20.7840 C   0  0  0  0  0  0  0  0  0  0  0  0
   -6.5420   -1.0700  -20.1630 C   0  0  0  0  0  0  0  0  0  0  0  0
   -6.8810   -1.3180  -18.8350 C   0  0  0  0  0  0  0  0  0  0  0  0
   -6.2750   -0.7690  -17.7730 N   0  0  0  0  0  0  0  0  0  0  0  0
   -5.2700    0.0670  -18.0060 C   0  0  0  0  0  0  0  0  0  0  0  0
   -7.2520   -1.5900  -21.2610 N   0  0  0  0  0  0  0  0  0  0  0  0
   -8.3610   -1.0880  -21.8450 C   0  0  0  0  0  0  0  0  0  0  0  0
   -8.8790   -0.0170  -21.5240 O   0  0  0  0  0  0  0  0  0  0  0  0
   -8.9360   -1.9630  -22.9430 C   0  0  0  0  0  0  0  0  0  0  0  0
  -10.4020   -1.7000  -23.1970 C   0  0  0  0  0  0  0  0  0  0  0  0
  -11.3710   -2.3260  -22.4190 C   0  0  0  0  0  0  0  0  0  0  0  0
  -12.6990   -1.9750  -22.5670 C   0  0  0  0  0  0  0  0  0  0  0  0
  -13.8900   -2.7430  -21.5590 Cl  0  0  0  0  0  0  0  0  0  0  0  0
  -13.1020   -1.0250  -23.4830 C   0  0  0  0  0  0  0  0  0  0  0  0
  -12.1440   -0.4330  -24.2890 C   0  0  0  0  0  0  0  0  0  0  0  0
  -10.8050   -0.7670  -24.1460 C   0  0  0  0  0  0  0  0  0  0  0  0
  2  1  2  0
  3  2  2  0
  2  4  1  1
  5  2  1  0
  6  5  1  0
  7  5  1  0
  8  7  2  0
  9  8  1  0
 10  9  2  0
 11 10  1  0
 12  7  1  0
 12 11  2  0
 13  9  1  0
 14 13  2  0
 15 14  1  0
 16 15  2  0
 16 10  1  0
 17 13  1  0
 18 17  1  0
 19 18  2  0
 20 18  1  0
 21 20  1  0
 22 21  2  0
 23 22  1  0
 24 23  1  0
 25 23  2  0
 26 25  1  0
 27 26  2  0
 27 21  1  0
M  END
$$$$

     RDKit          3D

 24 27  0  0  0  0  0  0  0  0999 V2000
   -8.7940   -0.1520  -21.3380 O   0  0  0  0  0  0  0  0  0  0  0  0
   -8.2810   -1.2310  -21.6140 C   0  0  0  0  0  0  0  0  0  0  0  0
   -8.7220   -2.0580  -22.8240 C   0  0  2  0  0  0  0  0  0  0  0  0
   -7.9070   -1.6230  -24.0520 C   0  0  0  0  0  0  0  0  0  0  0  0
   -8.4480   -0.3250  -24.5960 C   0  0  0  0  0  0  0  0  0  0  0  0
   -9.8390   -0.4400  -24.9750 O   0  0  0  0  0  0  0  0  0  0  0  0
  -10.2090   -1.8460  -23.0230 C   0  0  0  0  0  0  0  0  0  0  0  0
  -10.6710   -1.0130  -24.0460 C   0  0  0  0  0  0  0  0  0  0  0  0
  -12.0230   -0.7460  -24.2070 C   0  0  0  0  0  0  0  0  0  0  0  0
  -12.9410   -1.3270  -23.3510 C   0  0  0  0  0  0  0  0  0  0  0  0
  -11.1500   -2.4420  -22.1870 C   0  0  0  0  0  0  0  0  0  0  0  0
  -12.4940   -2.1790  -22.3660 C   0  0  0  0  0  0  0  0  0  0  0  0
  -13.6540   -2.9690  -21.3360 Cl  0  0  0  0  0  0  0  0  0  0  0  0
   -7.3070   -1.7940  -20.8800 N   0  0  0  0  0  0  0  0  0  0  0  0
   -6.4170   -1.2210  -19.9620 C   0  0  0  0  0  0  0  0  0  0  0  0
   -5.3100   -0.4400  -20.4210 C   0  0  0  0  0  0  0  0  0  0  0  0
   -4.8690   -0.4060  -21.7720 C   0  0  0  0  0  0  0  0  0  0  0  0
   -3.7720    0.3220  -22.1370 C   0  0  0  0  0  0  0  0  0  0  0  0
   -3.0600    1.0500  -21.1950 C   0  0  0  0  0  0  0  0  0  0  0  0
   -3.4470    1.0590  -19.8860 C   0  0  0  0  0  0  0  0  0  0  0  0
   -4.5810    0.3190  -19.4640 C   0  0  0  0  0  0  0  0  0  0  0  0
   -5.0260    0.2860  -18.1190 C   0  0  0  0  0  0  0  0  0  0  0  0
   -6.0780   -0.4090  -17.7010 N   0  0  0  0  0  0  0  0  0  0  0  0
   -6.7310   -1.1480  -18.6060 C   0  0  0  0  0  0  0  0  0  0  0  0
  2  1  2  0
  3  2  1  1
  4  3  1  0
  5  4  1  0
  6  5  1  0
  7  3  1  0
  8  7  2  0
  8  6  1  0
  9  8  1  0
 10  9  2  0
 11  7  1  0
 12 11  2  0
 12 10  1  0
 13 12  1  0
 14  2  1  0
 15 14  1  0
 16 15  1  0
 17 16  2  0
 18 17  1  0
 19 18  2  0
 20 19  1  0
 21 20  2  0
 21 16  1  0
 22 21  1  0
 23 22  2  0
 24 23  1  0
 24 15  2  0
M  END
$$$$

     RDKit          3D

 33 37  0  0  0  0  0  0  0  0999 V2000
   -6.8860   -5.0530  -23.5300 C   0  0  0  0  0  0  0  0  0  0  0  0
   -6.9270   -1.2470  -19.0240 C   0  0  0  0  0  0  0  0  0  0  0  0
   -5.0230    0.0510  -18.3280 C   0  0  0  0  0  0  0  0  0  0  0  0
   -7.2240   -1.9610  -21.3390 N   0  0  0  0  0  0  0  0  0  0  0  0
   -6.4320   -1.2430  -20.3380 C   0  0  0  0  0  0  0  0  0  0  0  0
  -11.6710   -2.6870  -23.1980 C   0  0  0  0  0  0  0  0  0  0  0  0
  -12.9680   -2.3110  -23.5610 C   0  0  0  0  0  0  0  0  0  0  0  0
  -13.2980   -0.9710  -23.7210 C   0  0  0  0  0  0  0  0  0  0  0  0
  -12.3360    0.0160  -23.4970 C   0  0  0  0  0  0  0  0  0  0  0  0
  -11.8080    2.3670  -23.3760 C   0  0  0  0  0  0  0  0  0  0  0  0
  -12.4790    3.6910  -23.8240 C   0  0  1  0  0  0  0  0  0  0  0  0
  -11.0290   -0.3360  -23.1300 C   0  0  0  0  0  0  0  0  0  0  0  0
   -6.6660   -3.1040  -21.9120 C   0  0  0  0  0  0  0  0  0  0  0  0
   -5.6470   -7.1490  -23.5640 C   0  0  0  0  0  0  0  0  0  0  0  0
   -5.8720   -7.2520  -24.9430 C   0  0  0  0  0  0  0  0  0  0  0  0
  -10.6980   -1.7000  -22.9860 C   0  0  0  0  0  0  0  0  0  0  0  0
   -9.2760   -2.1730  -22.5910 C   0  0  0  0  0  0  0  0  0  0  0  0
   -6.5970   -6.2620  -25.6170 C   0  0  0  0  0  0  0  0  0  0  0  0
   -7.0990   -5.1670  -24.9110 C   0  0  0  0  0  0  0  0  0  0  0  0
   -8.7430   -3.3230  -23.1860 C   0  0  0  0  0  0  0  0  0  0  0  0
   -8.4970   -1.4900  -21.6600 C   0  0  0  0  0  0  0  0  0  0  0  0
   -6.1450   -6.0470  -22.8560 C   0  0  0  0  0  0  0  0  0  0  0  0
   -5.8630   -5.9880  -21.3520 C   0  0  0  0  0  0  0  0  0  0  0  0
  -14.0050    3.7410  -23.6070 C   0  0  0  0  0  0  0  0  0  0  0  0
  -13.0510    4.5760  -22.7230 C   0  0  0  0  0  0  0  0  0  0  0  0
   -4.5400    0.0500  -19.6420 C   0  0  0  0  0  0  0  0  0  0  0  0
   -5.2380   -0.6040  -20.6610 C   0  0  0  0  0  0  0  0  0  0  0  0
   -7.4630   -3.7900  -22.8360 C   0  0  0  0  0  0  0  0  0  0  0  0
   -6.2220   -0.5950  -18.0130 N   0  0  0  0  0  0  0  0  0  0  0  0
   -5.6490   -5.9570  -20.2270 N   0  0  0  0  0  0  0  0  0  0  0  0
   -8.9650   -0.3290  -21.0480 O   0  0  0  0  0  0  0  0  0  0  0  0
  -12.7460    1.3540  -23.6670 O   0  0  0  0  0  0  0  0  0  0  0  0
  -14.2330   -3.5250  -23.8580 Cl  0  0  0  0  0  0  0  0  0  0  0  0
  5  4  1  0
  5  2  2  0
  7  6  2  0
  8  7  1  0
  9  8  2  0
 11 10  1  1
 12  9  1  0
 13  4  1  0
 15 14  2  0
 16 12  2  0
 16  6  1  0
 17 16  1  0
 18 15  1  0
 19 18  2  0
 19  1  1  0
 20 17  2  0
 21 17  1  0
 21  4  1  0
 22 14  1  0
 22  1  2  0
 23 22  1  0
 24 11  1  0
 25 24  1  0
 25 11  1  0
 26  3  1  0
 27  5  1  0
 27 26  2  0
 28 20  1  0
 28 13  2  0
 28  1  1  0
 29  2  1  0
 29  3  2  0
 30 23  3  0
 31 21  2  0
 32 10  1  0
 32  9  1  0
 33  7  1  0
M  END
$$$$

     RDKit          3D

 16 17  0  0  0  0  0  0  0  0999 V2000
   -9.2520   -0.0600  -21.3980 O   0  0  0  0  0  0  0  0  0  0  0  0
   -8.7800   -1.1090  -21.8240 C   0  0  0  0  0  0  0  0  0  0  0  0
   -9.4620   -1.8890  -22.9220 C   0  0  1  0  0  0  0  0  0  0  0  0
  -10.9070   -2.1900  -22.4880 C   0  0  0  0  0  0  0  0  0  0  0  0
  -11.8280   -2.7950  -23.5440 C   0  0  1  0  0  0  0  0  0  0  0  0
  -13.2480   -3.0660  -23.1920 C   0  0  0  0  0  0  0  0  0  0  0  0
  -12.9170   -1.9560  -24.1300 C   0  0  0  0  0  0  0  0  0  0  0  0
   -9.4160   -1.0470  -24.1970 C   0  0  0  0  0  0  0  0  0  0  0  0
   -7.6390   -1.6670  -21.3660 N   0  0  0  0  0  0  0  0  0  0  0  0
   -6.8280   -1.1170  -20.3470 C   0  0  0  0  0  0  0  0  0  0  0  0
   -5.6170   -0.4850  -20.6810 C   0  0  0  0  0  0  0  0  0  0  0  0
   -5.1530   -0.3480  -22.1090 C   0  0  0  0  0  0  0  0  0  0  0  0
   -4.8770    0.0690  -19.6440 C   0  0  0  0  0  0  0  0  0  0  0  0
   -5.3490   -0.0130  -18.3490 C   0  0  0  0  0  0  0  0  0  0  0  0
   -6.5030   -0.6050  -18.0190 N   0  0  0  0  0  0  0  0  0  0  0  0
   -7.2190   -1.1460  -19.0060 C   0  0  0  0  0  0  0  0  0  0  0  0
  2  1  2  0
  3  2  1  0
  4  3  1  0
  5  4  1  1
  6  5  1  0
  7  6  1  0
  7  5  1  0
  3  8  1  6
  9  2  1  0
 10  9  1  0
 11 10  2  0
 12 11  1  0
 13 11  1  0
 14 13  2  0
 15 14  1  0
 16 15  2  0
 16 10  1  0
M  END
$$$$

     RDKit          3D

 21 23  0  0  0  0  0  0  0  0999 V2000
   -8.9380   -0.4220  -21.3320 O   0  0  0  0  0  0  0  0  0  0  0  0
   -8.3330   -1.4480  -21.6370 C   0  0  0  0  0  0  0  0  0  0  0  0
   -8.7590   -2.3080  -22.8090 C   0  0  0  0  0  0  0  0  0  0  0  0
  -10.1490   -1.9160  -23.2420 C   0  0  0  0  0  0  0  0  0  0  0  0
  -10.3780   -0.9620  -24.2280 C   0  0  0  0  0  0  0  0  0  0  0  0
  -11.6810   -0.5650  -24.4780 C   0  0  0  0  0  0  0  0  0  0  0  0
  -12.7280   -1.1380  -23.7700 C   0  0  0  0  0  0  0  0  0  0  0  0
  -11.1460   -2.4890  -22.5490 N   0  0  0  0  0  0  0  0  0  0  0  0
  -12.3820   -2.1040  -22.8380 C   0  0  0  0  0  0  0  0  0  0  0  0
  -13.6400   -2.9760  -22.0130 Cl  0  0  0  0  0  0  0  0  0  0  0  0
   -7.2310   -1.8750  -20.9940 N   0  0  0  0  0  0  0  0  0  0  0  0
   -6.5150   -1.1990  -19.9910 C   0  0  0  0  0  0  0  0  0  0  0  0
   -5.3880   -0.4150  -20.3820 C   0  0  0  0  0  0  0  0  0  0  0  0
   -4.9330   -0.3000  -21.7200 C   0  0  0  0  0  0  0  0  0  0  0  0
   -3.8410    0.4580  -22.0260 C   0  0  0  0  0  0  0  0  0  0  0  0
   -3.1490    1.1340  -21.0330 C   0  0  0  0  0  0  0  0  0  0  0  0
   -3.5600    1.0760  -19.7350 C   0  0  0  0  0  0  0  0  0  0  0  0
   -4.6880    0.3010  -19.3720 C   0  0  0  0  0  0  0  0  0  0  0  0
   -5.1700    0.2020  -18.0450 C   0  0  0  0  0  0  0  0  0  0  0  0
   -6.2290   -0.5110  -17.6880 N   0  0  0  0  0  0  0  0  0  0  0  0
   -6.8670   -1.1930  -18.6440 C   0  0  0  0  0  0  0  0  0  0  0  0
  2  1  2  0
  3  2  1  0
  4  3  1  0
  5  4  2  0
  6  5  1  0
  7  6  2  0
  8  4  1  0
  9  8  2  0
  9  7  1  0
 10  9  1  0
 11  2  1  0
 12 11  1  0
 13 12  1  0
 14 13  2  0
 15 14  1  0
 16 15  2  0
 17 16  1  0
 18 17  2  0
 18 13  1  0
 19 18  1  0
 20 19  2  0
 21 20  1  0
 21 12  2  0
M  END
$$$$

     RDKit          3D

 34 37  0  0  0  0  0  0  0  0999 V2000
  -13.9210   -2.7690  -21.2490 Cl  0  0  0  0  0  0  0  0  0  0  0  0
  -12.8280   -1.9350  -22.3110 C   0  0  0  0  0  0  0  0  0  0  0  0
  -11.4950   -2.2870  -22.3110 C   0  0  0  0  0  0  0  0  0  0  0  0
  -13.3090   -0.9230  -23.1160 C   0  0  0  0  0  0  0  0  0  0  0  0
  -12.4360   -0.2780  -23.9710 C   0  0  0  0  0  0  0  0  0  0  0  0
  -11.0820   -0.6070  -23.9980 C   0  0  0  0  0  0  0  0  0  0  0  0
  -10.1600    0.0730  -24.9800 C   0  0  0  0  0  0  0  0  0  0  0  0
   -8.7580    0.0380  -24.5390 N   0  0  2  0  0  0  0  0  0  0  0  0
   -7.8530    0.7480  -25.4340 C   0  0  0  0  0  0  0  0  0  0  0  0
   -7.5450    2.1440  -24.9210 C   0  0  0  0  0  0  0  0  0  0  0  0
   -8.0340    3.1410  -25.4470 O   0  0  0  0  0  0  0  0  0  0  0  0
   -6.8080    2.2000  -23.8190 N   0  0  0  0  0  0  0  0  0  0  0  0
   -6.7210    3.3960  -22.9980 C   0  0  0  0  0  0  0  0  0  0  0  0
  -10.6000   -1.5930  -23.1210 C   0  0  0  0  0  0  0  0  0  0  0  0
   -9.1040   -1.7960  -22.9510 C   0  0  1  0  0  0  0  0  0  0  0  0
   -8.3550   -1.3280  -24.2030 C   0  0  0  0  0  0  0  0  0  0  0  0
   -8.6480   -1.0380  -21.6970 C   0  0  0  0  0  0  0  0  0  0  0  0
   -9.0580    0.0900  -21.4320 O   0  0  0  0  0  0  0  0  0  0  0  0
   -7.6810   -1.6660  -20.9750 N   0  0  0  0  0  0  0  0  0  0  0  0
   -6.8500   -1.1400  -19.9470 C   0  0  0  0  0  0  0  0  0  0  0  0
   -5.6850   -0.4290  -20.3630 C   0  0  0  0  0  0  0  0  0  0  0  0
   -4.9400    0.2860  -19.3830 C   0  0  0  0  0  0  0  0  0  0  0  0
   -5.3750    0.2090  -18.0370 C   0  0  0  0  0  0  0  0  0  0  0  0
   -6.4410   -0.4750  -17.6410 N   0  0  0  0  0  0  0  0  0  0  0  0
   -7.1500   -1.1180  -18.5820 C   0  0  0  0  0  0  0  0  0  0  0  0
   -5.2640   -0.3780  -21.7000 C   0  0  0  0  0  0  0  0  0  0  0  0
   -4.1840    0.3740  -22.0840 C   0  0  0  0  0  0  0  0  0  0  0  0
   -3.4670    1.0960  -21.1250 C   0  0  0  0  0  0  0  0  0  0  0  0
   -3.8250    1.0550  -19.8050 C   0  0  0  0  0  0  0  0  0  0  0  0
   -3.9060    0.3190  -23.4870 N   0  0  0  0  0  0  0  0  0  0  0  0
   -2.7750    1.0720  -24.3860 S   0  0  1  0  0  0  0  0  0  0  0  0
   -3.5010    1.9300  -25.2700 O   0  0  0  0  0  0  0  0  0  0  0  0
   -1.8070    1.6460  -23.5020 O   0  0  0  0  0  0  0  0  0  0  0  0
   -1.9930   -0.1730  -25.3410 C   0  0  0  0  0  0  0  0  0  0  0  0
  2  1  1  0
  3  2  2  0
  4  2  1  0
  5  4  2  0
  6  5  1  0
  7  6  1  0
  8  7  1  0
  8  9  1  6
 10  9  1  0
 11 10  2  0
 12 10  1  0
 13 12  1  0
 14  6  2  0
 14  3  1  0
 15 14  1  0
 16 15  1  0
 16  8  1  0
 15 17  1  1
 18 17  2  0
 19 17  1  0
 20 19  1  0
 21 20  2  0
 22 21  1  0
 23 22  2  0
 24 23  1  0
 25 24  2  0
 25 20  1  0
 26 21  1  0
 27 26  2  0
 28 27  1  0
 29 28  2  0
 29 22  1  0
 30 27  1  0
 31 30  1  0
 32 31  2  0
 33 31  2  0
 31 34  1  6
M  CHG  1   8   1
M  END
$$$$

     RDKit          3D

 23 24  0  0  0  0  0  0  0  0999 V2000
   -8.8290   -0.1700  -21.2650 O   0  0  0  0  0  0  0  0  0  0  0  0
   -8.1680   -1.0880  -21.7430 C   0  0  0  0  0  0  0  0  0  0  0  0
   -6.9790   -1.5000  -21.2560 N   0  0  0  0  0  0  0  0  0  0  0  0
   -6.3110   -0.9630  -20.1370 C   0  0  0  0  0  0  0  0  0  0  0  0
   -6.8940   -1.0520  -18.8740 C   0  0  0  0  0  0  0  0  0  0  0  0
   -6.4270   -0.4120  -17.7990 N   0  0  0  0  0  0  0  0  0  0  0  0
   -5.3230    0.3250  -17.9560 C   0  0  0  0  0  0  0  0  0  0  0  0
   -4.6460    0.4470  -19.1570 C   0  0  0  0  0  0  0  0  0  0  0  0
   -5.1500   -0.2090  -20.2650 C   0  0  0  0  0  0  0  0  0  0  0  0
   -8.6680   -1.8680  -22.9460 C   0  0  0  0  0  0  0  0  0  0  0  0
  -10.1200   -1.7460  -23.0710 N   0  0  2  0  0  0  0  0  0  0  0  0
  -10.7540   -3.0700  -23.0080 C   0  0  0  0  0  0  0  0  0  0  0  0
  -12.2600   -2.9530  -22.9030 C   0  0  0  0  0  0  0  0  0  0  0  0
  -12.8230   -2.1220  -24.0470 C   0  0  0  0  0  0  0  0  0  0  0  0
  -12.0830   -0.7950  -24.2120 C   0  0  0  0  0  0  0  0  0  0  0  0
  -10.5710   -0.9980  -24.2660 C   0  0  1  0  0  0  0  0  0  0  0  0
   -9.7930    0.2840  -24.5810 C   0  0  0  0  0  0  0  0  0  0  0  0
  -10.3090    1.5770  -23.9760 C   0  0  0  0  0  0  0  0  0  0  0  0
  -10.3790    2.6100  -25.0170 N   0  0  0  0  0  0  0  0  0  0  0  0
  -10.2930    4.1840  -24.6500 S   0  0  1  0  0  0  0  0  0  0  0  0
   -9.9010    4.8640  -25.8460 O   0  0  0  0  0  0  0  0  0  0  0  0
  -11.5350    4.5360  -24.0350 O   0  0  0  0  0  0  0  0  0  0  0  0
   -9.0200    4.3840  -23.4650 C   0  0  0  0  0  0  0  0  0  0  0  0
  2  1  2  0
  3  2  1  0
  4  3  1  0
  5  4  2  0
  6  5  1  0
  7  6  2  0
  8  7  1  0
  9  4  1  0
  9  8  2  0
 10  2  1  0
 11 10  1  6
 12 11  1  0
 13 12  1  0
 14 13  1  0
 15 14  1  0
 16 15  1  0
 16 11  1  0
 16 17  1  1
 18 17  1  0
 19 18  1  0
 20 19  1  0
 21 20  2  0
 22 20  2  0
 20 23  1  1
M  CHG  1  11   1
M  END
$$$$

     RDKit          3D

 27 30  0  0  0  0  0  0  0  0999 V2000
  -13.9050   -2.9580  -21.3730 Cl  0  0  0  0  0  0  0  0  0  0  0  0
  -12.7430   -2.1150  -22.3580 C   0  0  0  0  0  0  0  0  0  0  0  0
  -11.4000   -2.4240  -22.2300 C   0  0  0  0  0  0  0  0  0  0  0  0
  -13.1770   -1.1220  -23.2070 C   0  0  0  0  0  0  0  0  0  0  0  0
  -12.2470   -0.4410  -23.9720 C   0  0  0  0  0  0  0  0  0  0  0  0
  -10.8870   -0.7370  -23.8860 C   0  0  0  0  0  0  0  0  0  0  0  0
   -9.9450   -0.0980  -24.8860 C   0  0  0  0  0  0  0  0  0  0  0  0
   -8.5260   -0.2580  -24.5390 N   0  0  0  0  0  0  0  0  0  0  0  0
   -7.5540    0.6750  -24.7580 C   0  0  0  0  0  0  0  0  0  0  0  0
   -6.3770    0.3740  -24.6670 O   0  0  0  0  0  0  0  0  0  0  0  0
   -7.9700    2.0840  -25.0930 C   0  0  0  0  0  0  0  0  0  0  0  0
  -10.4570   -1.7150  -22.9780 C   0  0  0  0  0  0  0  0  0  0  0  0
   -8.9700   -1.9520  -22.7830 C   0  0  1  0  0  0  0  0  0  0  0  0
   -8.2080   -1.6080  -24.0630 C   0  0  0  0  0  0  0  0  0  0  0  0
   -8.4260   -1.1470  -21.6010 C   0  0  0  0  0  0  0  0  0  0  0  0
   -8.9550   -0.1030  -21.2200 O   0  0  0  0  0  0  0  0  0  0  0  0
   -7.3170   -1.6610  -21.0220 N   0  0  0  0  0  0  0  0  0  0  0  0
   -6.5840   -1.1150  -19.9500 C   0  0  0  0  0  0  0  0  0  0  0  0
   -5.4960   -0.2290  -20.2380 C   0  0  0  0  0  0  0  0  0  0  0  0
   -5.0270    0.0450  -21.5490 C   0  0  0  0  0  0  0  0  0  0  0  0
   -4.0140    0.9370  -21.7610 C   0  0  0  0  0  0  0  0  0  0  0  0
   -3.4060    1.5880  -20.6950 C   0  0  0  0  0  0  0  0  0  0  0  0
   -3.8150    1.3510  -19.4120 C   0  0  0  0  0  0  0  0  0  0  0  0
   -4.8710    0.4420  -19.1490 C   0  0  0  0  0  0  0  0  0  0  0  0
   -5.3560    0.1810  -17.8450 C   0  0  0  0  0  0  0  0  0  0  0  0
   -6.3540   -0.6470  -17.5730 N   0  0  0  0  0  0  0  0  0  0  0  0
   -6.9370   -1.2740  -18.6070 C   0  0  0  0  0  0  0  0  0  0  0  0
  2  1  1  0
  3  2  2  0
  4  2  1  0
  5  4  2  0
  6  5  1  0
  7  6  1  0
  8  7  1  0
  9  8  1  0
 10  9  2  0
 11  9  1  0
 12  3  1  0
 12  6  2  0
 13 12  1  0
 14 13  1  0
 14  8  1  0
 13 15  1  1
 16 15  2  0
 17 15  1  0
 18 17  1  0
 19 18  1  0
 20 19  2  0
 21 20  1  0
 22 21  2  0
 23 22  1  0
 24 19  1  0
 24 23  2  0
 25 24  1  0
 26 25  2  0
 27 26  1  0
 27 18  2  0
M  END
$$$$

     RDKit          3D

 31 34  0  0  0  0  0  0  0  0999 V2000
  -13.7870   -2.8340  -21.5900 Cl  0  0  0  0  0  0  0  0  0  0  0  0
  -12.6270   -1.9860  -22.5780 C   0  0  0  0  0  0  0  0  0  0  0  0
  -11.2840   -2.2960  -22.4610 C   0  0  0  0  0  0  0  0  0  0  0  0
  -13.0710   -1.0250  -23.4520 C   0  0  0  0  0  0  0  0  0  0  0  0
  -12.1520   -0.3770  -24.2550 C   0  0  0  0  0  0  0  0  0  0  0  0
  -10.7920   -0.6550  -24.1690 C   0  0  0  0  0  0  0  0  0  0  0  0
   -9.8710    0.0840  -25.1140 C   0  0  0  0  0  0  0  0  0  0  0  0
   -8.4470   -0.1280  -24.8240 N   0  0  0  0  0  0  0  0  0  0  0  0
   -7.2680    0.8670  -25.2520 S   0  0  1  0  0  0  0  0  0  0  0  0
   -6.0550    0.3680  -24.7040 O   0  0  0  0  0  0  0  0  0  0  0  0
   -7.3990    1.0680  -26.6530 O   0  0  0  0  0  0  0  0  0  0  0  0
   -7.6460    2.2370  -24.5130 N   0  0  0  0  0  0  0  0  0  0  0  0
   -8.1880    3.3310  -25.3250 C   0  0  0  0  0  0  0  0  0  0  0  0
   -7.4580    2.5440  -23.0830 C   0  0  0  0  0  0  0  0  0  0  0  0
   -6.2610    3.4280  -22.8370 C   0  0  0  0  0  0  0  0  0  0  0  0
  -10.3470   -1.6120  -23.2400 C   0  0  0  0  0  0  0  0  0  0  0  0
   -8.8630   -1.8580  -23.0510 C   0  0  1  0  0  0  0  0  0  0  0  0
   -8.0880   -1.4600  -24.3060 C   0  0  0  0  0  0  0  0  0  0  0  0
   -8.3800   -1.0800  -21.8230 C   0  0  0  0  0  0  0  0  0  0  0  0
   -8.9810   -0.0930  -21.3910 O   0  0  0  0  0  0  0  0  0  0  0  0
   -7.2220   -1.5400  -21.2800 N   0  0  0  0  0  0  0  0  0  0  0  0
   -6.5160   -0.9950  -20.1820 C   0  0  0  0  0  0  0  0  0  0  0  0
   -5.4040   -0.1280  -20.4390 C   0  0  0  0  0  0  0  0  0  0  0  0
   -4.8440    0.0800  -21.7270 C   0  0  0  0  0  0  0  0  0  0  0  0
   -3.7560    0.8890  -21.9000 C   0  0  0  0  0  0  0  0  0  0  0  0
   -3.1790    1.5390  -20.8170 C   0  0  0  0  0  0  0  0  0  0  0  0
   -3.6840    1.3750  -19.5570 C   0  0  0  0  0  0  0  0  0  0  0  0
   -4.7990    0.5320  -19.3300 C   0  0  0  0  0  0  0  0  0  0  0  0
   -5.3220    0.2700  -18.0400 C   0  0  0  0  0  0  0  0  0  0  0  0
   -6.3360   -0.5530  -17.8000 N   0  0  0  0  0  0  0  0  0  0  0  0
   -6.9080   -1.1580  -18.8520 C   0  0  0  0  0  0  0  0  0  0  0  0
  2  1  1  0
  3  2  2  0
  4  2  1  0
  5  4  2  0
  6  5  1  0
  7  6  1  0
  8  7  1  0
  9  8  1  0
 10  9  2  0
 11  9  2  0
  9 12  1  1
 13 12  1  0
 14 12  1  0
 15 14  1  0
 16  3  1  0
 16  6  2  0
 17 16  1  0
 18 17  1  0
 18  8  1  0
 17 19  1  1
 20 19  2  0
 21 19  1  0
 22 21  1  0
 23 22  1  0
 24 23  2  0
 25 24  1  0
 26 25  2  0
 27 26  1  0
 28 27  2  0
 28 23  1  0
 29 28  1  0
 30 29  2  0
 31 30  1  0
 31 22  2  0
M  END
$$$$

     RDKit          3D

 36 40  0  0  0  0  0  0  0  0999 V2000
  -13.5890   -2.7570  -21.9880 Cl  0  0  0  0  0  0  0  0  0  0  0  0
  -12.3150   -1.9130  -22.8070 C   0  0  0  0  0  0  0  0  0  0  0  0
  -12.6010   -0.9390  -23.7550 C   0  0  0  0  0  0  0  0  0  0  0  0
  -14.2320   -0.5640  -24.1970 Cl  0  0  0  0  0  0  0  0  0  0  0  0
  -11.5740   -0.2850  -24.3980 C   0  0  0  0  0  0  0  0  0  0  0  0
  -10.2640   -0.6150  -24.1150 C   0  0  0  0  0  0  0  0  0  0  0  0
  -11.0010   -2.2330  -22.5060 C   0  0  0  0  0  0  0  0  0  0  0  0
   -9.9570   -1.5870  -23.1680 C   0  0  0  0  0  0  0  0  0  0  0  0
   -8.4940   -1.9340  -22.8550 C   0  0  2  0  0  0  0  0  0  0  0  0
   -8.3870   -3.4230  -22.5040 C   0  0  0  0  0  0  0  0  0  0  0  0
   -8.0220   -1.0070  -21.6830 C   0  0  0  0  0  0  0  0  0  0  0  0
   -7.1740   -1.5560  -20.7890 N   0  0  0  0  0  0  0  0  0  0  0  0
   -6.2050   -1.0390  -19.9010 C   0  0  0  0  0  0  0  0  0  0  0  0
   -5.2880    0.0000  -20.2760 C   0  0  0  0  0  0  0  0  0  0  0  0
   -4.8620    0.2380  -21.6110 C   0  0  0  0  0  0  0  0  0  0  0  0
   -3.8600    1.1290  -21.8880 C   0  0  0  0  0  0  0  0  0  0  0  0
   -3.2420    1.8380  -20.8700 C   0  0  0  0  0  0  0  0  0  0  0  0
   -3.6220    1.6590  -19.5710 C   0  0  0  0  0  0  0  0  0  0  0  0
   -4.6430    0.7320  -19.2340 C   0  0  0  0  0  0  0  0  0  0  0  0
   -4.9740    0.4100  -17.8990 C   0  0  0  0  0  0  0  0  0  0  0  0
   -5.8050   -0.5550  -17.5510 N   0  0  0  0  0  0  0  0  0  0  0  0
   -6.3710   -1.2650  -18.5340 C   0  0  0  0  0  0  0  0  0  0  0  0
   -8.4530    0.1310  -21.5630 O   0  0  0  0  0  0  0  0  0  0  0  0
   -7.6460   -1.6700  -24.0260 N   0  0  0  0  0  0  0  0  0  0  0  0
   -6.9760   -0.5470  -24.3360 C   0  0  0  0  0  0  0  0  0  0  0  0
   -7.2730    0.5660  -23.9080 O   0  0  0  0  0  0  0  0  0  0  0  0
   -5.7730   -0.7390  -25.2440 C   0  0  0  0  0  0  0  0  0  0  0  0
   -5.7820    0.1460  -26.3930 N   0  0  0  0  0  0  0  0  0  0  0  0
   -4.8640    1.1350  -26.5650 C   0  0  0  0  0  0  0  0  0  0  0  0
   -3.9140    1.3600  -25.8370 O   0  0  0  0  0  0  0  0  0  0  0  0
   -5.2270    1.8660  -27.6650 N   0  0  0  0  0  0  0  0  0  0  0  0
   -6.6970    1.7970  -27.7550 C   0  0  0  0  0  0  0  0  0  0  0  0
   -6.9950    0.4280  -27.1650 C   0  0  0  0  0  0  0  0  0  0  0  0
   -4.5150    1.7930  -28.9540 C   0  0  1  0  0  0  0  0  0  0  0  0
   -3.1890    2.4590  -29.0970 C   0  0  0  0  0  0  0  0  0  0  0  0
   -3.2830    0.9620  -29.0930 C   0  0  0  0  0  0  0  0  0  0  0  0
  2  1  1  0
  3  2  2  0
  4  3  1  0
  5  3  1  0
  6  5  2  0
  7  2  1  0
  8  7  2  0
  8  6  1  0
  9  8  1  0
  9 10  1  1
 11  9  1  0
 12 11  1  0
 13 12  1  0
 14 13  1  0
 15 14  2  0
 16 15  1  0
 17 16  2  0
 18 17  1  0
 19 18  2  0
 19 14  1  0
 20 19  1  0
 21 20  2  0
 22 21  1  0
 22 13  2  0
 23 11  2  0
 24  9  1  0
 25 24  1  0
 26 25  2  0
 27 25  1  0
 28 27  1  0
 29 28  1  0
 30 29  2  0
 31 29  1  0
 32 31  1  0
 33 32  1  0
 33 28  1  0
 34 31  1  1
 35 34  1  0
 36 35  1  0
 36 34  1  0
M  END
$$$$

     RDKit          3D

 27 31  0  0  0  0  0  0  0  0999 V2000
   -8.7400   -0.0100  -21.3450 O   0  0  0  0  0  0  0  0  0  0  0  0
   -8.2120   -1.0390  -21.7160 C   0  0  0  0  0  0  0  0  0  0  0  0
   -8.5620   -1.8350  -22.9730 C   0  0  2  0  0  0  0  0  0  0  0  0
   -7.8410   -1.1630  -24.1680 C   0  0  0  0  0  0  0  0  0  0  0  0
   -8.6580   -0.0310  -24.7520 C   0  0  0  0  0  0  0  0  0  0  0  0
   -9.9390   -0.5000  -25.1980 O   0  0  0  0  0  0  0  0  0  0  0  0
  -10.0800   -1.8820  -23.1920 C   0  0  0  0  0  0  0  0  0  0  0  0
  -10.6690   -1.1830  -24.2580 C   0  0  0  0  0  0  0  0  0  0  0  0
  -12.0420   -1.1450  -24.4310 C   0  0  0  0  0  0  0  0  0  0  0  0
  -12.8590   -1.8020  -23.5290 C   0  0  0  0  0  0  0  0  0  0  0  0
  -10.9180   -2.5620  -22.3080 C   0  0  0  0  0  0  0  0  0  0  0  0
  -12.2910   -2.4970  -22.4860 C   0  0  0  0  0  0  0  0  0  0  0  0
  -13.3300   -3.3110  -21.3530 Cl  0  0  0  0  0  0  0  0  0  0  0  0
   -7.1670   -1.7100  -21.0640 N   0  0  0  0  0  0  0  0  0  0  0  0
   -6.8850   -2.9520  -21.6330 C   0  0  0  0  0  0  0  0  0  0  0  0
   -5.9290   -3.6510  -21.3270 O   0  0  0  0  0  0  0  0  0  0  0  0
   -7.9190   -3.2130  -22.6950 C   0  0  0  0  0  0  0  0  0  0  0  0
   -6.3950   -1.1310  -19.9950 C   0  0  0  0  0  0  0  0  0  0  0  0
   -5.3800   -0.1810  -20.3090 C   0  0  0  0  0  0  0  0  0  0  0  0
   -4.8820    0.0610  -21.6150 C   0  0  0  0  0  0  0  0  0  0  0  0
   -3.9160    1.0020  -21.8390 C   0  0  0  0  0  0  0  0  0  0  0  0
   -3.3950    1.7450  -20.7880 C   0  0  0  0  0  0  0  0  0  0  0  0
   -3.8320    1.5410  -19.5100 C   0  0  0  0  0  0  0  0  0  0  0  0
   -4.8320    0.5740  -19.2350 C   0  0  0  0  0  0  0  0  0  0  0  0
   -5.3240    0.3130  -17.9300 C   0  0  0  0  0  0  0  0  0  0  0  0
   -6.2690   -0.5750  -17.6490 N   0  0  0  0  0  0  0  0  0  0  0  0
   -6.7880   -1.2720  -18.6680 C   0  0  0  0  0  0  0  0  0  0  0  0
  2  1  2  0
  3  2  1  0
  3  4  1  6
  5  4  1  0
  6  5  1  0
  7  3  1  0
  8  7  2  0
  8  6  1  0
  9  8  1  0
 10  9  2  0
 11  7  1  0
 12 11  2  0
 12 10  1  0
 13 12  1  0
 14  2  1  0
 15 14  1  0
 16 15  2  0
 17  3  1  0
 17 15  1  0
 18 14  1  0
 19 18  1  0
 20 19  2  0
 21 20  1  0
 22 21  2  0
 23 22  1  0
 24 23  2  0
 24 19  1  0
 25 24  1  0
 26 25  2  0
 27 26  1  0
 27 18  2  0
M  END
$$$$

     RDKit          3D

 26 29  0  0  0  0  0  0  0  0999 V2000
   -6.4230    0.0930  -17.1980 O   0  0  0  0  0  0  0  0  0  0  0  0
   -5.8100   -0.1280  -18.2410 C   0  0  0  0  0  0  0  0  0  0  0  0
   -6.0920   -1.2220  -19.1040 C   0  0  0  0  0  0  0  0  0  0  0  0
   -4.8380    0.7370  -18.6670 N   0  0  0  0  0  0  0  0  0  0  0  0
   -4.1580    0.6210  -19.8730 C   0  0  0  0  0  0  0  0  0  0  0  0
   -4.4610   -0.4510  -20.7370 C   0  0  0  0  0  0  0  0  0  0  0  0
   -3.7730   -0.5600  -21.9480 C   0  0  0  0  0  0  0  0  0  0  0  0
   -2.7850    0.3560  -22.2720 C   0  0  0  0  0  0  0  0  0  0  0  0
   -2.4760    1.3870  -21.4110 C   0  0  0  0  0  0  0  0  0  0  0  0
   -3.1650    1.5390  -20.2180 C   0  0  0  0  0  0  0  0  0  0  0  0
   -5.4770   -1.4080  -20.2990 C   0  0  0  0  0  0  0  0  0  0  0  0
   -5.8180   -2.6320  -21.0780 C   0  0  0  0  0  0  0  0  0  0  0  0
   -5.2720   -3.6850  -20.7850 O   0  0  0  0  0  0  0  0  0  0  0  0
   -6.7200   -2.5490  -22.0720 N   0  0  0  0  0  0  0  0  0  0  0  0
   -6.9560   -3.6680  -22.9960 C   0  0  0  0  0  0  0  0  0  0  0  0
   -8.4310   -4.0510  -22.9830 C   0  0  0  0  0  0  0  0  0  0  0  0
   -7.5660   -1.3760  -22.3370 C   0  0  0  0  0  0  0  0  0  0  0  0
   -9.0390   -1.7750  -22.3360 C   0  0  0  0  0  0  0  0  0  0  0  0
   -9.2700   -2.8800  -23.2760 N   0  0  0  0  0  0  0  0  0  0  0  0
  -10.5970   -3.1050  -23.7480 C   0  0  0  0  0  0  0  0  0  0  0  0
  -10.8210   -3.9230  -24.8780 C   0  0  0  0  0  0  0  0  0  0  0  0
   -9.7660   -4.5640  -25.4340 F   0  0  0  0  0  0  0  0  0  0  0  0
  -11.7130   -2.5240  -23.1500 C   0  0  0  0  0  0  0  0  0  0  0  0
  -12.9800   -2.7370  -23.6770 C   0  0  0  0  0  0  0  0  0  0  0  0
  -13.1570   -3.5240  -24.8030 C   0  0  0  0  0  0  0  0  0  0  0  0
  -12.0720   -4.1270  -25.4150 C   0  0  0  0  0  0  0  0  0  0  0  0
  2  1  2  0
  3  2  1  0
  4  2  1  0
  5  4  1  0
  6  5  2  0
  7  6  1  0
  8  7  2  0
  9  8  1  0
 10  9  2  0
 10  5  1  0
 11  3  2  0
 11  6  1  0
 12 11  1  0
 13 12  2  0
 14 12  1  0
 15 14  1  0
 16 15  1  0
 17 14  1  0
 18 17  1  0
 19 18  1  0
 19 16  1  0
 20 19  1  0
 21 20  2  0
 22 21  1  0
 23 20  1  0
 24 23  2  0
 25 24  1  0
 26 25  2  0
 26 21  1  0
M  END
$$$$

     RDKit          3D

 10 10  0  0  0  0  0  0  0  0999 V2000
  -17.9200   29.3870    5.3930 C   0  0  0  0  0  0  0  0  0  0  0  0
  -16.7670   29.0650    4.4860 C   0  0  0  0  0  0  0  0  0  0  0  0
  -16.3110   27.7580    4.3180 C   0  0  0  0  0  0  0  0  0  0  0  0
  -15.2510   27.5130    3.4650 C   0  0  0  0  0  0  0  0  0  0  0  0
  -15.0210   29.7310    2.9940 C   0  0  0  0  0  0  0  0  0  0  0  0
  -16.0910   30.0760    3.8200 C   0  0  0  0  0  0  0  0  0  0  0  0
  -18.8480   30.2310    4.9550 N   0  0  0  0  0  0  0  0  0  0  0  0
  -14.6120   28.4890    2.8040 N   0  0  0  0  0  0  0  0  0  0  0  0
  -17.9650   28.8930    6.5310 O   0  0  0  0  0  0  0  0  0  0  0  0
  -14.1850   30.9820    2.1260 Cl  0  0  0  0  0  0  0  0  0  0  0  0
  2  1  1  0
  3  2  2  0
  4  3  1  0
  6  2  1  0
  6  5  2  0
  7  1  1  0
  8  5  1  0
  8  4  2  0
  9  1  2  0
 10  5  1  0
M  END
$$$$

     RDKit          3D

 21 23  0  0  0  0  0  0  0  0999 V2000
  -13.8960   -2.6750  -21.7120 Cl  0  0  0  0  0  0  0  0  0  0  0  0
  -12.6030   -2.0380  -22.6880 C   0  0  0  0  0  0  0  0  0  0  0  0
  -12.8950   -1.1330  -23.6880 C   0  0  0  0  0  0  0  0  0  0  0  0
  -11.8510   -0.6080  -24.4320 C   0  0  0  0  0  0  0  0  0  0  0  0
  -10.5420   -0.9740  -24.1540 C   0  0  0  0  0  0  0  0  0  0  0  0
  -11.3060   -2.4210  -22.4060 C   0  0  0  0  0  0  0  0  0  0  0  0
  -10.2530   -1.8670  -23.1290 C   0  0  0  0  0  0  0  0  0  0  0  0
   -8.8210   -2.1760  -22.7500 C   0  0  0  0  0  0  0  0  0  0  0  0
   -8.2550   -1.2330  -21.7070 C   0  0  0  0  0  0  0  0  0  0  0  0
   -8.7970   -0.1580  -21.4420 O   0  0  0  0  0  0  0  0  0  0  0  0
   -7.1250   -1.6750  -21.1050 N   0  0  0  0  0  0  0  0  0  0  0  0
   -6.4440   -1.0380  -20.0390 C   0  0  0  0  0  0  0  0  0  0  0  0
   -6.8540   -1.2480  -18.7240 C   0  0  0  0  0  0  0  0  0  0  0  0
   -6.3230   -0.6140  -17.6700 N   0  0  0  0  0  0  0  0  0  0  0  0
   -5.3410    0.2650  -17.8970 C   0  0  0  0  0  0  0  0  0  0  0  0
   -5.4020   -0.1230  -20.2470 C   0  0  0  0  0  0  0  0  0  0  0  0
   -4.7450    0.3040  -21.3700 N   0  0  0  0  0  0  0  0  0  0  0  0
   -4.9440   -0.0670  -22.7630 C   0  0  0  0  0  0  0  0  0  0  0  0
   -4.8210    0.5670  -19.1600 C   0  0  0  0  0  0  0  0  0  0  0  0
   -3.8260    1.3840  -19.7570 C   0  0  0  0  0  0  0  0  0  0  0  0
   -3.7830    1.2220  -21.0630 N   0  0  0  0  0  0  0  0  0  0  0  0
  2  1  1  0
  3  2  2  0
  4  3  1  0
  5  4  2  0
  6  2  1  0
  7  6  2  0
  7  5  1  0
  8  7  1  0
  9  8  1  0
 10  9  2  0
 11  9  1  0
 12 11  1  0
 13 12  2  0
 14 13  1  0
 15 14  2  0
 16 12  1  0
 17 16  1  0
 18 17  1  0
 19 16  2  0
 19 15  1  0
 20 19  1  0
 21 20  2  0
 21 17  1  0
M  END
$$$$

     RDKit          3D

 34 38  0  0  0  0  0  0  0  0999 V2000
   -5.9910    0.0620  -25.0520 O   0  0  0  0  0  0  0  0  0  0  0  0
   -7.2500    0.7350  -24.9640 S   0  0  2  0  0  0  0  0  0  0  0  0
   -7.7030    1.5130  -26.0730 O   0  0  0  0  0  0  0  0  0  0  0  0
   -7.2450    1.7840  -23.5230 C   0  0  0  0  0  0  0  0  0  0  0  0
   -6.7330    3.2190  -23.6760 C   0  0  2  0  0  0  0  0  0  0  0  0
   -5.2320    3.2480  -23.9840 C   0  0  0  0  0  0  0  0  0  0  0  0
   -4.7080    4.6650  -23.9930 C   0  0  0  0  0  0  0  0  0  0  0  0
   -4.9970    5.3380  -22.7560 O   0  0  0  0  0  0  0  0  0  0  0  0
   -6.4130    5.4230  -22.5480 C   0  0  0  0  0  0  0  0  0  0  0  0
   -7.0330    4.0510  -22.4300 C   0  0  0  0  0  0  0  0  0  0  0  0
   -8.3800   -0.3960  -24.6720 N   0  0  0  0  0  0  0  0  0  0  0  0
   -9.7550   -0.1790  -25.1380 C   0  0  0  0  0  0  0  0  0  0  0  0
   -8.0640   -1.7740  -24.2550 C   0  0  0  0  0  0  0  0  0  0  0  0
   -8.8660   -2.0310  -22.9780 C   0  0  2  0  0  0  0  0  0  0  0  0
  -10.3410   -1.7470  -23.2080 C   0  0  0  0  0  0  0  0  0  0  0  0
  -10.7420   -0.8310  -24.1960 C   0  0  0  0  0  0  0  0  0  0  0  0
  -12.0910   -0.5020  -24.3110 C   0  0  0  0  0  0  0  0  0  0  0  0
  -13.0370   -1.0600  -23.4720 C   0  0  0  0  0  0  0  0  0  0  0  0
  -11.3070   -2.3420  -22.3940 C   0  0  0  0  0  0  0  0  0  0  0  0
  -12.6350   -1.9880  -22.5390 C   0  0  0  0  0  0  0  0  0  0  0  0
  -13.8340   -2.7520  -21.5310 Cl  0  0  0  0  0  0  0  0  0  0  0  0
   -8.3310   -1.1720  -21.8270 C   0  0  0  0  0  0  0  0  0  0  0  0
   -8.9200   -0.1640  -21.4310 O   0  0  0  0  0  0  0  0  0  0  0  0
   -7.1740   -1.6230  -21.2730 N   0  0  0  0  0  0  0  0  0  0  0  0
   -6.4910   -1.0890  -20.1550 C   0  0  0  0  0  0  0  0  0  0  0  0
   -5.3680   -0.2250  -20.3710 C   0  0  0  0  0  0  0  0  0  0  0  0
   -4.7760    0.0000  -21.6410 C   0  0  0  0  0  0  0  0  0  0  0  0
   -3.7100    0.8430  -21.7800 C   0  0  0  0  0  0  0  0  0  0  0  0
   -3.1820    1.5060  -20.6800 C   0  0  0  0  0  0  0  0  0  0  0  0
   -3.7080    1.3140  -19.4340 C   0  0  0  0  0  0  0  0  0  0  0  0
   -4.8040    0.4360  -19.2410 C   0  0  0  0  0  0  0  0  0  0  0  0
   -5.3650    0.1650  -17.9700 C   0  0  0  0  0  0  0  0  0  0  0  0
   -6.3840   -0.6600  -17.7650 N   0  0  0  0  0  0  0  0  0  0  0  0
   -6.9210   -1.2580  -18.8380 C   0  0  0  0  0  0  0  0  0  0  0  0
  2  1  2  0
  3  2  2  0
  2  4  1  1
  5  4  1  1
  6  5  1  0
  7  6  1  0
  8  7  1  0
  9  8  1  0
 10  9  1  0
 10  5  1  0
 11  2  1  0
 12 11  1  0
 13 11  1  0
 14 13  1  0
 15 14  1  0
 16 15  2  0
 16 12  1  0
 17 16  1  0
 18 17  2  0
 19 15  1  0
 20 19  2  0
 20 18  1  0
 21 20  1  0
 14 22  1  1
 23 22  2  0
 24 22  1  0
 25 24  1  0
 26 25  1  0
 27 26  2  0
 28 27  1  0
 29 28  2  0
 30 29  1  0
 31 30  2  0
 31 26  1  0
 32 31  1  0
 33 32  2  0
 34 33  1  0
 34 25  2  0
M  END
$$$$

     RDKit          3D

 27 31  0  0  0  0  0  0  0  0999 V2000
   -9.3110    0.2610  -21.2910 O   0  0  0  0  0  0  0  0  0  0  0  0
   -8.8510   -0.6740  -21.9290 C   0  0  0  0  0  0  0  0  0  0  0  0
   -9.5170   -1.1340  -23.2280 C   0  0  2  0  0  0  0  0  0  0  0  0
   -8.9560   -0.2200  -24.3440 C   0  0  0  0  0  0  0  0  0  0  0  0
   -9.8210    0.9970  -24.5860 C   0  0  0  0  0  0  0  0  0  0  0  0
  -11.1700    0.6320  -24.8950 O   0  0  0  0  0  0  0  0  0  0  0  0
  -11.0500   -1.0420  -23.1410 C   0  0  0  0  0  0  0  0  0  0  0  0
  -11.7680   -0.1370  -23.9300 C   0  0  0  0  0  0  0  0  0  0  0  0
  -13.1390    0.0180  -23.8020 C   0  0  0  0  0  0  0  0  0  0  0  0
  -13.8240   -0.7590  -22.8850 C   0  0  0  0  0  0  0  0  0  0  0  0
  -11.7580   -1.8390  -22.2420 C   0  0  0  0  0  0  0  0  0  0  0  0
  -13.1290   -1.6820  -22.1290 C   0  0  0  0  0  0  0  0  0  0  0  0
  -13.9990   -2.6680  -20.9850 Cl  0  0  0  0  0  0  0  0  0  0  0  0
   -7.6960   -1.3060  -21.5390 N   0  0  0  0  0  0  0  0  0  0  0  0
   -7.2970   -2.6510  -21.9830 C   0  0  0  0  0  0  0  0  0  0  0  0
   -8.4580   -3.4120  -22.5860 C   0  0  0  0  0  0  0  0  0  0  0  0
   -9.1690   -2.5830  -23.6470 C   0  0  0  0  0  0  0  0  0  0  0  0
   -6.9580   -0.8390  -20.4010 C   0  0  0  0  0  0  0  0  0  0  0  0
   -5.8040   -0.0170  -20.5800 C   0  0  0  0  0  0  0  0  0  0  0  0
   -5.2780    0.3540  -21.8480 C   0  0  0  0  0  0  0  0  0  0  0  0
   -4.1900    1.1740  -21.9460 C   0  0  0  0  0  0  0  0  0  0  0  0
   -3.5740    1.6760  -20.8040 C   0  0  0  0  0  0  0  0  0  0  0  0
   -4.0320    1.3370  -19.5610 C   0  0  0  0  0  0  0  0  0  0  0  0
   -5.1430    0.4720  -19.4140 C   0  0  0  0  0  0  0  0  0  0  0  0
   -5.6430    0.0670  -18.1530 C   0  0  0  0  0  0  0  0  0  0  0  0
   -6.6940   -0.7220  -17.9890 N   0  0  0  0  0  0  0  0  0  0  0  0
   -7.3250   -1.1450  -19.0930 C   0  0  0  0  0  0  0  0  0  0  0  0
  2  1  2  0
  3  2  1  0
  3  4  1  6
  5  4  1  0
  6  5  1  0
  7  3  1  0
  8  7  2  0
  8  6  1  0
  9  8  1  0
 10  9  2  0
 11  7  1  0
 12 11  2  0
 12 10  1  0
 13 12  1  0
 14  2  1  0
 15 14  1  0
 16 15  1  0
 17 16  1  0
 17  3  1  0
 18 14  1  0
 19 18  1  0
 20 19  2  0
 21 20  1  0
 22 21  2  0
 23 22  1  0
 24 19  1  0
 24 23  2  0
 25 24  1  0
 26 25  2  0
 27 26  1  0
 27 18  2  0
M  END
$$$$

     RDKit          3D

 13 14  0  0  0  0  0  0  0  0999 V2000
   -7.2020   21.7550    3.3040 F   0  0  0  0  0  0  0  0  0  0  0  0
   -7.0730   21.9890    1.9700 C   0  0  0  0  0  0  0  0  0  0  0  0
   -6.1100   21.2900    1.2740 C   0  0  0  0  0  0  0  0  0  0  0  0
   -5.9560   21.5370   -0.0800 C   0  0  0  0  0  0  0  0  0  0  0  0
   -7.9060   22.9250    1.4020 C   0  0  0  0  0  0  0  0  0  0  0  0
   -7.7630   23.1770    0.0400 C   0  0  0  0  0  0  0  0  0  0  0  0
   -6.7850   22.4730   -0.6850 C   0  0  0  0  0  0  0  0  0  0  0  0
   -6.8730   22.8760   -1.9950 N   0  0  0  0  0  0  0  0  0  0  0  0
   -7.8730   23.8030   -2.1090 C   0  0  0  0  0  0  0  0  0  0  0  0
   -8.4560   24.0200   -0.8940 C   0  0  0  0  0  0  0  0  0  0  0  0
   -9.6330   24.9140   -0.5900 C   0  0  0  0  0  0  0  0  0  0  0  0
  -10.8890   24.2690   -0.9920 N   0  0  0  0  0  0  0  0  0  0  0  0
  -11.0290   22.9190   -0.4460 C   0  0  0  0  0  0  0  0  0  0  0  0
  2  1  1  0
  3  2  2  0
  4  3  1  0
  5  2  1  0
  6  5  2  0
  7  4  2  0
  7  6  1  0
  8  7  1  0
  9  8  1  0
 10  9  2  0
 10  6  1  0
 11 10  1  0
 12 11  1  0
 13 12  1  0
M  CHG  1  12   1
M  END
$$$$

     RDKit          3D

 24 27  0  0  0  0  0  0  0  0999 V2000
  -13.2330   -3.2110  -21.4060 Cl  0  0  0  0  0  0  0  0  0  0  0  0
  -12.2910   -2.0590  -22.3140 C   0  0  0  0  0  0  0  0  0  0  0  0
  -12.9400   -1.0520  -22.9990 C   0  0  0  0  0  0  0  0  0  0  0  0
  -12.2020   -0.1840  -23.7840 C   0  0  0  0  0  0  0  0  0  0  0  0
  -10.9210   -2.2120  -22.3740 C   0  0  0  0  0  0  0  0  0  0  0  0
  -10.1660   -1.3480  -23.1650 C   0  0  0  0  0  0  0  0  0  0  0  0
  -10.8270   -0.3460  -23.8680 C   0  0  0  0  0  0  0  0  0  0  0  0
  -10.1580    0.4770  -24.7310 O   0  0  0  0  0  0  0  0  0  0  0  0
   -9.1950   -0.2480  -25.5140 C   0  0  0  0  0  0  0  0  0  0  0  0
   -8.1150   -0.9040  -24.6820 C   0  0  0  0  0  0  0  0  0  0  0  0
   -8.6610   -1.4560  -23.3210 C   0  0  1  0  0  0  0  0  0  0  0  0
   -7.9440   -0.7730  -22.1550 C   0  0  0  0  0  0  0  0  0  0  0  0
   -8.5140    0.0140  -21.4020 O   0  0  0  0  0  0  0  0  0  0  0  0
   -6.6160   -1.0680  -22.0480 N   0  0  0  0  0  0  0  0  0  0  0  0
   -5.6970   -0.3260  -21.2890 C   0  0  0  0  0  0  0  0  0  0  0  0
   -4.7260    0.4360  -21.9110 C   0  0  0  0  0  0  0  0  0  0  0  0
   -4.6040    0.5740  -23.4060 C   0  0  0  0  0  0  0  0  0  0  0  0
   -5.8470   -0.3910  -19.8800 C   0  0  0  0  0  0  0  0  0  0  0  0
   -6.6860   -1.0120  -19.0650 N   0  0  0  0  0  0  0  0  0  0  0  0
   -6.3410   -0.6320  -17.7700 N   0  0  0  0  0  0  0  0  0  0  0  0
   -5.3220    0.1800  -17.8460 C   0  0  0  0  0  0  0  0  0  0  0  0
   -4.9560    0.3690  -19.1420 N   0  0  0  0  0  0  0  0  0  0  0  0
   -3.9590    1.1220  -19.7280 C   0  0  0  0  0  0  0  0  0  0  0  0
   -3.8210    1.1640  -21.0610 C   0  0  0  0  0  0  0  0  0  0  0  0
  2  1  1  0
  3  2  2  0
  4  3  1  0
  5  2  1  0
  6  5  2  0
  7  4  2  0
  7  6  1  0
  8  7  1  0
  9  8  1  0
 10  9  1  0
 11 10  1  0
 11  6  1  0
 11 12  1  1
 13 12  2  0
 14 12  1  0
 15 14  1  0
 16 15  2  0
 17 16  1  0
 18 15  1  0
 19 18  2  0
 20 19  1  0
 21 20  2  0
 22 18  1  0
 22 21  1  0
 23 22  1  0
 24 16  1  0
 24 23  2  0
M  END
$$$$

     RDKit          3D

 18 19  0  0  0  0  0  0  0  0999 V2000
   -6.2580   -3.2250  -24.3510 N   0  0  0  0  0  0  0  0  0  0  0  0
   -0.7330   -3.4620  -27.8410 C   0  0  0  0  0  0  0  0  0  0  0  0
   -7.0720   -2.9750  -26.4400 O   0  0  0  0  0  0  0  0  0  0  0  0
   -2.1310   -3.3860  -27.2930 C   0  0  0  0  0  0  0  0  0  0  0  0
   -5.7060   -4.8850  -22.6500 C   0  0  0  0  0  0  0  0  0  0  0  0
   -5.2010   -3.7180  -23.4650 C   0  0  0  0  0  0  0  0  0  0  0  0
   -6.9320   -4.4550  -20.5440 C   0  0  0  0  0  0  0  0  0  0  0  0
   -8.2380   -4.0180  -19.9410 C   0  0  0  0  0  0  0  0  0  0  0  0
   -3.1350   -4.2150  -27.7610 C   0  0  0  0  0  0  0  0  0  0  0  0
   -4.4230   -4.1440  -27.2560 C   0  0  0  0  0  0  0  0  0  0  0  0
   -4.7310   -3.2280  -26.2660 C   0  0  0  0  0  0  0  0  0  0  0  0
   -3.7340   -2.3980  -25.7860 C   0  0  0  0  0  0  0  0  0  0  0  0
   -2.4500   -2.4790  -26.2960 C   0  0  0  0  0  0  0  0  0  0  0  0
   -6.1160   -3.1380  -25.6870 C   0  0  0  0  0  0  0  0  0  0  0  0
   -7.4870   -2.8600  -23.6470 C   0  0  0  0  0  0  0  0  0  0  0  0
   -7.9590   -3.9910  -22.7590 C   0  0  0  0  0  0  0  0  0  0  0  0
   -6.8750   -4.4570  -21.8900 N   0  0  0  0  0  0  0  0  0  0  0  0
   -5.9820   -4.7710  -19.8390 O   0  0  0  0  0  0  0  0  0  0  0  0
  4  2  1  0
  6  5  1  0
  6  1  1  0
  8  7  1  0
  9  4  2  0
 10  9  1  0
 11 10  2  0
 12 11  1  0
 13  4  1  0
 13 12  2  0
 14  3  2  0
 14  1  1  0
 14 11  1  0
 15  1  1  0
 16 15  1  0
 17 16  1  0
 17  5  1  0
 17  7  1  0
 18  7  2  0
M  END
$$$$

     RDKit          3D

 21 22  0  0  0  0  0  0  0  0999 V2000
  -10.9750    4.9110  -24.2310 O   0  0  0  0  0  0  0  0  0  0  0  0
   -9.9950    3.8710  -24.3430 S   0  0  1  0  0  0  0  0  0  0  0  0
   -9.3540    3.6610  -25.6060 O   0  0  0  0  0  0  0  0  0  0  0  0
   -8.8480    4.1830  -23.2690 N   0  0  0  0  0  0  0  0  0  0  0  0
  -10.7830    2.3540  -23.9000 C   0  0  0  0  0  0  0  0  0  0  0  0
  -11.9940    2.3780  -23.2290 C   0  0  0  0  0  0  0  0  0  0  0  0
  -12.6220    1.1850  -22.9270 C   0  0  0  0  0  0  0  0  0  0  0  0
  -10.1880    1.1550  -24.2600 C   0  0  0  0  0  0  0  0  0  0  0  0
  -10.8210   -0.0460  -23.9430 C   0  0  0  0  0  0  0  0  0  0  0  0
  -12.0550   -0.0370  -23.2830 C   0  0  0  0  0  0  0  0  0  0  0  0
  -12.7360   -1.3460  -22.9730 C   0  0  0  0  0  0  0  0  0  0  0  0
  -11.7210   -2.4500  -22.7580 C   0  0  0  0  0  0  0  0  0  0  0  0
  -10.7890   -2.5630  -23.9520 C   0  0  0  0  0  0  0  0  0  0  0  0
  -10.1530   -1.2830  -24.2770 N   0  0  0  0  0  0  0  0  0  0  0  0
   -8.6900   -1.3250  -24.3590 C   0  0  0  0  0  0  0  0  0  0  0  0
   -8.1830   -1.8340  -25.6950 C   0  0  0  0  0  0  0  0  0  0  0  0
   -6.7140   -1.7900  -25.7140 N   0  0  0  0  0  0  0  0  0  0  0  0
   -5.9480   -0.3770  -25.9200 S   0  0  2  0  0  0  0  0  0  0  0  0
   -6.9130    0.5430  -26.4360 O   0  0  0  0  0  0  0  0  0  0  0  0
   -4.7740   -0.6440  -26.6930 O   0  0  0  0  0  0  0  0  0  0  0  0
   -5.4440    0.1880  -24.3390 C   0  0  0  0  0  0  0  0  0  0  0  0
  2  1  2  0
  3  2  2  0
  2  4  1  1
  5  2  1  0
  6  5  2  0
  7  6  1  0
  8  5  1  0
  9  8  2  0
 10  7  2  0
 10  9  1  0
 11 10  1  0
 12 11  1  0
 13 12  1  0
 14 13  1  0
 14  9  1  0
 15 14  1  0
 16 15  1  0
 17 16  1  0
 18 17  1  0
 19 18  2  0
 20 18  2  0
 18 21  1  1
M  END
$$$$

     RDKit          3D

 25 28  0  0  0  0  0  0  0  0999 V2000
   -8.9780    0.1500  -21.5990 O   0  0  0  0  0  0  0  0  0  0  0  0
   -8.5760   -0.9430  -21.9730 C   0  0  0  0  0  0  0  0  0  0  0  0
   -7.8850   -1.9020  -21.0010 C   0  0  0  0  0  0  0  0  0  0  0  0
   -7.0740   -1.2000  -20.0240 N   0  0  0  0  0  0  0  0  0  0  0  0
   -5.9650   -0.4320  -20.2130 C   0  0  0  0  0  0  0  0  0  0  0  0
   -5.2790    0.0060  -21.3370 C   0  0  0  0  0  0  0  0  0  0  0  0
   -4.2040    0.8620  -21.1450 C   0  0  0  0  0  0  0  0  0  0  0  0
   -3.8250    1.2590  -19.8670 C   0  0  0  0  0  0  0  0  0  0  0  0
   -4.5050    0.8010  -18.7470 C   0  0  0  0  0  0  0  0  0  0  0  0
   -5.5900   -0.0530  -18.9270 C   0  0  0  0  0  0  0  0  0  0  0  0
   -6.4670   -0.6160  -18.0280 N   0  0  0  0  0  0  0  0  0  0  0  0
   -7.3520   -1.2990  -18.6990 N   0  0  0  0  0  0  0  0  0  0  0  0
   -8.7220   -1.3610  -23.2630 N   0  0  0  0  0  0  0  0  0  0  0  0
   -9.8780   -1.0290  -24.1130 C   0  0  2  0  0  0  0  0  0  0  0  0
   -9.7940    0.3790  -24.7290 C   0  0  0  0  0  0  0  0  0  0  0  0
   -8.4240    0.7250  -25.3240 C   0  0  0  0  0  0  0  0  0  0  0  0
   -7.5830   -0.4290  -25.8940 C   0  0  0  0  0  0  0  0  0  0  0  0
   -6.8430   -1.3320  -24.9080 C   0  0  0  0  0  0  0  0  0  0  0  0
   -7.6700   -2.1450  -23.9170 C   0  0  0  0  0  0  0  0  0  0  0  0
  -11.2180   -1.4110  -23.5180 C   0  0  0  0  0  0  0  0  0  0  0  0
  -11.4110   -2.6810  -22.9940 C   0  0  0  0  0  0  0  0  0  0  0  0
  -12.6390   -3.0510  -22.4720 C   0  0  0  0  0  0  0  0  0  0  0  0
  -13.6890   -2.1630  -22.4740 C   0  0  0  0  0  0  0  0  0  0  0  0
  -13.5180   -0.9030  -23.0060 C   0  0  0  0  0  0  0  0  0  0  0  0
  -12.2890   -0.5250  -23.5220 C   0  0  0  0  0  0  0  0  0  0  0  0
  2  1  2  0
  3  2  1  0
  4  3  1  0
  5  4  1  0
  6  5  2  0
  7  6  1  0
  8  7  2  0
  9  8  1  0
 10  5  1  0
 10  9  2  0
 11 10  1  0
 12 11  2  0
 12  4  1  0
 13  2  1  0
 14 13  1  0
 15 14  1  0
 16 15  1  0
 17 16  1  0
 18 17  2  0
 19 18  1  0
 19 13  1  0
 14 20  1  1
 21 20  2  0
 22 21  1  0
 23 22  2  0
 24 23  1  0
 25 24  2  0
 25 20  1  0
M  END
$$$$

     RDKit          3D

 32 35  0  0  0  0  0  0  0  0999 V2000
   -9.1900    0.0380  -21.1810 O   0  0  0  0  0  0  0  0  0  0  0  0
   -8.5960   -0.8700  -21.7420 C   0  0  0  0  0  0  0  0  0  0  0  0
   -7.4040   -1.3350  -21.3010 N   0  0  0  0  0  0  0  0  0  0  0  0
   -6.6800   -0.8630  -20.1900 C   0  0  0  0  0  0  0  0  0  0  0  0
   -5.5490   -0.0150  -20.4140 C   0  0  0  0  0  0  0  0  0  0  0  0
   -5.0900    0.3640  -21.7030 C   0  0  0  0  0  0  0  0  0  0  0  0
   -4.0220    1.2060  -21.8490 C   0  0  0  0  0  0  0  0  0  0  0  0
   -3.3640    1.7150  -20.7350 C   0  0  0  0  0  0  0  0  0  0  0  0
   -3.7660    1.3750  -19.4750 C   0  0  0  0  0  0  0  0  0  0  0  0
   -4.8650    0.5000  -19.2790 C   0  0  0  0  0  0  0  0  0  0  0  0
   -5.3460    0.1340  -17.9990 C   0  0  0  0  0  0  0  0  0  0  0  0
   -6.3950   -0.6480  -17.7920 N   0  0  0  0  0  0  0  0  0  0  0  0
   -7.0330   -1.1280  -18.8670 C   0  0  0  0  0  0  0  0  0  0  0  0
   -9.1480   -1.4910  -23.0480 C   0  0  1  0  0  0  0  0  0  0  0  0
  -10.6650   -1.3130  -23.0700 C   0  0  0  0  0  0  0  0  0  0  0  0
  -11.5060   -2.1220  -22.3100 C   0  0  0  0  0  0  0  0  0  0  0  0
  -12.8740   -1.9230  -22.3720 C   0  0  0  0  0  0  0  0  0  0  0  0
  -13.9040   -2.7830  -21.2550 Cl  0  0  0  0  0  0  0  0  0  0  0  0
  -13.4370   -0.9810  -23.2050 C   0  0  0  0  0  0  0  0  0  0  0  0
  -12.6140   -0.1790  -23.9720 C   0  0  0  0  0  0  0  0  0  0  0  0
  -11.2420   -0.3420  -23.8890 C   0  0  0  0  0  0  0  0  0  0  0  0
  -10.4900    0.5090  -24.6560 O   0  0  0  0  0  0  0  0  0  0  0  0
   -9.3320   -0.1270  -25.2030 C   0  0  0  0  0  0  0  0  0  0  0  0
   -8.4050   -0.6640  -24.1280 C   0  0  0  0  0  0  0  0  0  0  0  0
   -8.7770   -2.9910  -23.0980 C   0  0  0  0  0  0  0  0  0  0  0  0
   -9.1040   -3.6610  -24.3450 N   0  0  0  0  0  0  0  0  0  0  0  0
   -8.6680   -4.8920  -24.6060 C   0  0  0  0  0  0  0  0  0  0  0  0
   -7.9020   -5.4990  -23.8590 O   0  0  0  0  0  0  0  0  0  0  0  0
   -9.2470   -5.5480  -25.8500 C   0  0  0  0  0  0  0  0  0  0  0  0
   -8.4250   -5.4150  -27.0580 N   0  0  2  0  0  0  0  0  0  0  0  0
   -9.1110   -5.9890  -28.2120 C   0  0  0  0  0  0  0  0  0  0  0  0
   -7.1290   -6.0640  -26.8810 C   0  0  0  0  0  0  0  0  0  0  0  0
  2  1  2  0
  3  2  1  0
  4  3  1  0
  5  4  1  0
  6  5  2  0
  7  6  1  0
  8  7  2  0
  9  8  1  0
 10  5  1  0
 10  9  2  0
 11 10  1  0
 12 11  2  0
 13 12  1  0
 13  4  2  0
 14  2  1  0
 15 14  1  0
 16 15  2  0
 17 16  1  0
 18 17  1  0
 19 17  2  0
 20 19  1  0
 21 20  2  0
 21 15  1  0
 22 21  1  0
 23 22  1  0
 24 23  1  0
 24 14  1  0
 14 25  1  1
 26 25  1  0
 27 26  1  0
 28 27  2  0
 29 27  1  0
 30 29  1  0
 30 31  1  6
 32 30  1  0
M  CHG  1  30   1
M  END
$$$$

     RDKit          3D

 19 21  0  0  0  0  0  0  0  0999 V2000
   -9.5260   -1.3220  -22.9520 N   0  0  0  0  0  0  0  0  0  0  0  0
   -7.4810   -1.3460  -18.8970 N   0  0  0  0  0  0  0  0  0  0  0  0
   -9.4800   -2.6760  -23.5180 C   0  0  0  0  0  0  0  0  0  0  0  0
   -8.7870   -0.9280  -21.9020 C   0  0  0  0  0  0  0  0  0  0  0  0
   -7.8780   -1.9410  -21.2230 C   0  0  0  0  0  0  0  0  0  0  0  0
   -5.6460   -0.1900  -19.0200 C   0  0  0  0  0  0  0  0  0  0  0  0
   -4.5070    0.5810  -18.7470 C   0  0  0  0  0  0  0  0  0  0  0  0
   -4.0400    0.5420  -21.1140 C   0  0  0  0  0  0  0  0  0  0  0  0
  -10.4670   -0.4030  -23.6120 C   0  0  0  0  0  0  0  0  0  0  0  0
  -13.1940   -3.0020  -24.5040 C   0  0  0  0  0  0  0  0  0  0  0  0
   -5.1450   -0.2140  -21.4040 C   0  0  0  0  0  0  0  0  0  0  0  0
   -5.9380   -0.5800  -20.3170 C   0  0  0  0  0  0  0  0  0  0  0  0
  -11.8530   -1.0060  -23.7060 C   0  0  0  0  0  0  0  0  0  0  0  0
  -11.8100   -2.3800  -24.3620 C   0  0  1  0  0  0  0  0  0  0  0  0
  -10.8730   -3.2620  -23.5510 C   0  0  0  0  0  0  0  0  0  0  0  0
   -3.7290    0.9280  -19.8090 C   0  0  0  0  0  0  0  0  0  0  0  0
   -7.0890   -1.2980  -20.1990 N   0  0  0  0  0  0  0  0  0  0  0  0
   -6.6160   -0.6880  -18.1790 N   0  0  0  0  0  0  0  0  0  0  0  0
   -8.7950    0.2320  -21.5170 O   0  0  0  0  0  0  0  0  0  0  0  0
  3  1  1  0
  4  1  1  0
  5  4  1  0
  7  6  2  0
  9  1  1  0
 11  8  1  0
 12  6  1  0
 12 11  2  0
 13  9  1  0
 14 13  1  0
 14 10  1  1
 15 14  1  0
 15  3  1  0
 16  8  2  0
 16  7  1  0
 17 12  1  0
 17  5  1  0
 17  2  1  0
 18  6  1  0
 18  2  2  0
 19  4  2  0
M  END
$$$$

     RDKit          3D

 31 34  0  0  0  0  0  0  0  0999 V2000
  -10.5060    1.7530  -24.6960 O   0  0  0  0  0  0  0  0  0  0  0  0
  -10.1440    0.6350  -24.3700 C   0  0  0  0  0  0  0  0  0  0  0  0
   -8.8400    0.2280  -24.4960 N   0  0  0  0  0  0  0  0  0  0  0  0
   -7.9150    1.0200  -25.2820 C   0  0  0  0  0  0  0  0  0  0  0  0
   -7.3340    2.2650  -24.6330 C   0  0  0  0  0  0  0  0  0  0  0  0
   -6.6470    3.0410  -25.2920 O   0  0  0  0  0  0  0  0  0  0  0  0
   -7.5850    2.4530  -23.3430 N   0  0  0  0  0  0  0  0  0  0  0  0
   -6.9630    3.5190  -22.5780 C   0  0  0  0  0  0  0  0  0  0  0  0
  -11.0550   -0.2920  -23.6850 C   0  0  0  0  0  0  0  0  0  0  0  0
  -12.4130    0.0240  -23.6020 C   0  0  0  0  0  0  0  0  0  0  0  0
  -13.2820   -0.7990  -22.9140 C   0  0  0  0  0  0  0  0  0  0  0  0
  -12.7940   -1.9460  -22.3260 C   0  0  0  0  0  0  0  0  0  0  0  0
  -13.8970   -3.0130  -21.5010 Cl  0  0  0  0  0  0  0  0  0  0  0  0
  -11.4510   -2.2760  -22.3740 C   0  0  0  0  0  0  0  0  0  0  0  0
  -10.5590   -1.4310  -23.0370 C   0  0  0  0  0  0  0  0  0  0  0  0
   -9.0690   -1.6970  -22.9840 C   0  0  1  0  0  0  0  0  0  0  0  0
   -8.4080   -1.1510  -24.2490 C   0  0  0  0  0  0  0  0  0  0  0  0
   -8.4860   -0.9160  -21.8040 C   0  0  0  0  0  0  0  0  0  0  0  0
   -8.9120    0.1920  -21.4760 O   0  0  0  0  0  0  0  0  0  0  0  0
   -7.4520   -1.5180  -21.1810 N   0  0  0  0  0  0  0  0  0  0  0  0
   -6.7200   -1.0200  -20.0850 C   0  0  0  0  0  0  0  0  0  0  0  0
   -5.5970   -0.1730  -20.3440 C   0  0  0  0  0  0  0  0  0  0  0  0
   -5.1260    0.1240  -21.6470 C   0  0  0  0  0  0  0  0  0  0  0  0
   -4.0610    0.9530  -21.7860 C   0  0  0  0  0  0  0  0  0  0  0  0
   -3.6350    1.2460  -23.0430 F   0  0  0  0  0  0  0  0  0  0  0  0
   -3.4000    1.5290  -20.7290 C   0  0  0  0  0  0  0  0  0  0  0  0
   -3.8320    1.2730  -19.4600 C   0  0  0  0  0  0  0  0  0  0  0  0
   -4.9340    0.4150  -19.2300 C   0  0  0  0  0  0  0  0  0  0  0  0
   -5.4270    0.1170  -17.9370 C   0  0  0  0  0  0  0  0  0  0  0  0
   -6.4680   -0.6670  -17.6970 N   0  0  0  0  0  0  0  0  0  0  0  0
   -7.0860   -1.2150  -18.7520 C   0  0  0  0  0  0  0  0  0  0  0  0
  2  1  2  0
  3  2  1  0
  4  3  1  0
  5  4  1  0
  6  5  2  0
  7  5  1  0
  8  7  1  0
  9  2  1  0
 10  9  2  0
 11 10  1  0
 12 11  2  0
 13 12  1  0
 14 12  1  0
 15 14  2  0
 15  9  1  0
 16 15  1  0
 17 16  1  0
 17  3  1  0
 16 18  1  1
 19 18  2  0
 20 18  1  0
 21 20  1  0
 22 21  1  0
 23 22  2  0
 24 23  1  0
 25 24  1  0
 26 24  2  0
 27 26  1  0
 28 22  1  0
 28 27  2  0
 29 28  1  0
 30 29  2  0
 31 30  1  0
 31 21  2  0
M  END
$$$$

     RDKit          3D

 20 22  0  0  0  0  0  0  0  0999 V2000
   -9.4540    0.0300  -21.5450 O   0  0  0  0  0  0  0  0  0  0  0  0
   -9.1310   -1.0600  -21.9990 C   0  0  0  0  0  0  0  0  0  0  0  0
   -8.0090   -1.7140  -21.6190 N   0  0  0  0  0  0  0  0  0  0  0  0
   -7.1360   -1.2500  -20.5960 C   0  0  0  0  0  0  0  0  0  0  0  0
   -7.5270   -1.1890  -19.2550 C   0  0  0  0  0  0  0  0  0  0  0  0
   -6.7430   -0.7220  -18.2740 N   0  0  0  0  0  0  0  0  0  0  0  0
   -5.5160   -0.3110  -18.6110 C   0  0  0  0  0  0  0  0  0  0  0  0
   -5.0380   -0.3220  -19.9070 C   0  0  0  0  0  0  0  0  0  0  0  0
   -5.8480   -0.7930  -20.9370 C   0  0  0  0  0  0  0  0  0  0  0  0
   -5.3640   -0.7740  -22.3630 C   0  0  0  0  0  0  0  0  0  0  0  0
  -10.0110   -1.7820  -23.0020 C   0  0  0  0  0  0  0  0  0  0  0  0
   -9.3520   -2.8330  -23.8650 C   0  0  0  0  0  0  0  0  0  0  0  0
   -9.7310   -4.1680  -23.7400 C   0  0  0  0  0  0  0  0  0  0  0  0
   -9.2670   -5.1070  -24.6600 C   0  0  0  0  0  0  0  0  0  0  0  0
   -9.5170   -6.4750  -24.7910 N   0  0  0  0  0  0  0  0  0  0  0  0
   -8.8490   -6.8310  -25.8710 C   0  0  0  0  0  0  0  0  0  0  0  0
   -8.1790   -5.8110  -26.4570 N   0  0  0  0  0  0  0  0  0  0  0  0
   -8.4270   -4.6980  -25.6940 C   0  0  0  0  0  0  0  0  0  0  0  0
   -8.0070   -3.3810  -25.8140 C   0  0  0  0  0  0  0  0  0  0  0  0
   -8.4700   -2.4660  -24.8820 C   0  0  0  0  0  0  0  0  0  0  0  0
  2  1  2  0
  3  2  1  0
  4  3  1  0
  5  4  2  0
  6  5  1  0
  7  6  2  0
  8  7  1  0
  9  4  1  0
  9  8  2  0
 10  9  1  0
 11  2  1  0
 12 11  1  0
 13 12  2  0
 14 13  1  0
 15 14  1  0
 16 15  2  0
 17 16  1  0
 18 17  1  0
 18 14  2  0
 19 18  1  0
 20 19  2  0
 20 12  1  0
M  END
$$$$

     RDKit          3D

 22 25  0  0  0  0  0  0  0  0999 V2000
   -5.3480   -0.4500  -19.5420 N   0  0  0  0  0  0  0  0  0  0  0  0
   -6.9530   -1.1930  -21.1080 N   0  0  0  0  0  0  0  0  0  0  0  0
   -6.5360   -0.5300  -17.6990 N   0  0  0  0  0  0  0  0  0  0  0  0
   -4.6250    1.0630  -21.4440 C   0  0  0  0  0  0  0  0  0  0  0  0
  -12.5510   -1.2610  -23.7990 C   0  0  0  0  0  0  0  0  0  0  0  0
   -8.9470   -0.2280  -21.2970 O   0  0  0  0  0  0  0  0  0  0  0  0
   -6.6270   -0.7220  -19.8690 C   0  0  0  0  0  0  0  0  0  0  0  0
  -11.5940   -0.6450  -24.5850 C   0  0  0  0  0  0  0  0  0  0  0  0
   -8.3650   -1.8720  -22.9700 C   0  0  2  0  0  0  0  0  0  0  0  0
   -7.4750   -1.3300  -24.1090 C   0  0  0  0  0  0  0  0  0  0  0  0
   -8.0260   -0.0210  -24.6090 C   0  0  0  0  0  0  0  0  0  0  0  0
   -4.3110   -0.0560  -20.5130 C   0  0  1  0  0  0  0  0  0  0  0  0
   -9.8380   -1.7180  -23.2970 C   0  0  0  0  0  0  0  0  0  0  0  0
   -5.3450   -0.3390  -18.1840 C   0  0  0  0  0  0  0  0  0  0  0  0
   -3.6300    1.2570  -20.3450 C   0  0  0  0  0  0  0  0  0  0  0  0
  -10.8170   -2.3560  -22.5360 C   0  0  0  0  0  0  0  0  0  0  0  0
  -12.1510   -2.1090  -22.7920 C   0  0  0  0  0  0  0  0  0  0  0  0
   -7.3710   -0.7730  -18.7750 N   0  0  0  0  0  0  0  0  0  0  0  0
   -9.3670   -0.1700  -25.1210 O   0  0  0  0  0  0  0  0  0  0  0  0
   -8.1770   -1.1120  -21.6550 C   0  0  0  0  0  0  0  0  0  0  0  0
  -10.2480   -0.8640  -24.3240 C   0  0  0  0  0  0  0  0  0  0  0  0
  -13.3550   -2.8950  -21.8100 Cl  0  0  0  0  0  0  0  0  0  0  0  0
  7  2  1  0
  7  1  1  0
  8  5  2  0
 10  9  1  0
 11 10  1  0
 12  4  1  0
 12  1  1  1
 13  9  1  0
 14  3  2  0
 14  1  1  0
 15 12  1  0
 15  4  1  0
 16 13  1  0
 17  5  1  0
 17 16  2  0
 18  7  2  0
 18  3  1  0
 19 11  1  0
  9 20  1  1
 20  6  2  0
 20  2  1  0
 21  8  1  0
 21 19  1  0
 21 13  2  0
 22 17  1  0
M  END
$$$$

     RDKit          3D

 24 26  0  0  0  0  0  0  0  0999 V2000
  -13.4660   -3.0660  -21.9910 Cl  0  0  0  0  0  0  0  0  0  0  0  0
  -12.2710   -2.0900  -22.7780 C   0  0  0  0  0  0  0  0  0  0  0  0
  -12.6500   -1.0600  -23.6260 C   0  0  0  0  0  0  0  0  0  0  0  0
  -14.3210   -0.6710  -23.8630 Cl  0  0  0  0  0  0  0  0  0  0  0  0
  -11.6890   -0.3040  -24.2650 C   0  0  0  0  0  0  0  0  0  0  0  0
  -10.3500   -0.5650  -24.0450 C   0  0  0  0  0  0  0  0  0  0  0  0
  -10.9280   -2.3450  -22.5500 C   0  0  0  0  0  0  0  0  0  0  0  0
   -9.9530   -1.5760  -23.1830 C   0  0  0  0  0  0  0  0  0  0  0  0
   -8.4760   -1.8210  -22.9060 C   0  0  2  0  0  0  0  0  0  0  0  0
   -8.0990   -3.2440  -23.0480 N   0  0  0  0  0  0  0  0  0  0  0  0
   -7.4460   -3.4620  -24.3380 C   0  0  0  0  0  0  0  0  0  0  0  0
   -8.0120   -1.0680  -21.6350 C   0  0  0  0  0  0  0  0  0  0  0  0
   -8.5420   -0.0120  -21.2860 O   0  0  0  0  0  0  0  0  0  0  0  0
   -6.9500   -1.6200  -21.0080 N   0  0  0  0  0  0  0  0  0  0  0  0
   -6.2140   -1.0690  -19.9420 C   0  0  0  0  0  0  0  0  0  0  0  0
   -5.1510   -0.1620  -20.2490 C   0  0  0  0  0  0  0  0  0  0  0  0
   -4.6660    0.0740  -21.5610 C   0  0  0  0  0  0  0  0  0  0  0  0
   -3.6530    0.9650  -21.7880 C   0  0  0  0  0  0  0  0  0  0  0  0
   -3.0710    1.6580  -20.7360 C   0  0  0  0  0  0  0  0  0  0  0  0
   -3.5000    1.4630  -19.4530 C   0  0  0  0  0  0  0  0  0  0  0  0
   -4.5500    0.5500  -19.1740 C   0  0  0  0  0  0  0  0  0  0  0  0
   -5.0370    0.3010  -17.8670 C   0  0  0  0  0  0  0  0  0  0  0  0
   -6.0040   -0.5600  -17.5820 N   0  0  0  0  0  0  0  0  0  0  0  0
   -6.5640   -1.2230  -18.6020 C   0  0  0  0  0  0  0  0  0  0  0  0
  2  1  1  0
  3  2  2  0
  4  3  1  0
  5  3  1  0
  6  5  2  0
  7  2  1  0
  8  7  2  0
  8  6  1  0
  9  8  1  0
  9 10  1  1
 11 10  1  0
 12  9  1  0
 13 12  2  0
 14 12  1  0
 15 14  1  0
 16 15  1  0
 17 16  2  0
 18 17  1  0
 19 18  2  0
 20 19  1  0
 21 20  2  0
 21 16  1  0
 22 21  1  0
 23 22  2  0
 24 23  1  0
 24 15  2  0
M  CHG  1  10   1
M  END
$$$$

     RDKit          3D

 27 29  0  0  0  0  0  0  0  0999 V2000
   -7.0700   -2.5590  -21.7420 N   0  0  0  0  0  0  0  0  0  0  0  0
  -11.0030   -0.6050  -23.4650 C   0  0  0  0  0  0  0  0  0  0  0  0
   -5.5350   -1.4660  -20.2660 C   0  0  0  0  0  0  0  0  0  0  0  0
   -3.8900   -0.6660  -21.9760 C   0  0  0  0  0  0  0  0  0  0  0  0
   -9.4480   -2.1770  -22.5690 O   0  0  0  0  0  0  0  0  0  0  0  0
   -9.5880   -4.3210  -23.7690 C   0  0  0  0  0  0  0  0  0  0  0  0
   -6.3570    0.0840  -17.1560 O   0  0  0  0  0  0  0  0  0  0  0  0
  -12.2990   -0.1120  -23.5550 C   0  0  0  0  0  0  0  0  0  0  0  0
  -10.7620   -1.8240  -22.7890 C   0  0  0  0  0  0  0  0  0  0  0  0
   -2.3770    1.1300  -21.4100 C   0  0  0  0  0  0  0  0  0  0  0  0
  -11.8220   -2.5130  -22.2150 C   0  0  0  0  0  0  0  0  0  0  0  0
  -13.1020   -1.9830  -22.2770 C   0  0  0  0  0  0  0  0  0  0  0  0
   -5.7350   -0.2120  -18.1760 C   0  0  0  0  0  0  0  0  0  0  0  0
   -5.9200   -2.6500  -21.0770 C   0  0  0  0  0  0  0  0  0  0  0  0
   -2.8440    0.1700  -22.2690 C   0  0  0  0  0  0  0  0  0  0  0  0
   -2.1950   -0.0140  -23.4500 F   0  0  0  0  0  0  0  0  0  0  0  0
   -7.4670   -3.5450  -22.7410 C   0  0  0  0  0  0  0  0  0  0  0  0
   -6.1150   -1.2700  -19.0510 C   0  0  0  0  0  0  0  0  0  0  0  0
   -4.4840   -0.5660  -20.7190 C   0  0  0  0  0  0  0  0  0  0  0  0
   -4.0510    0.4320  -19.8270 C   0  0  0  0  0  0  0  0  0  0  0  0
  -10.0430    1.3920  -24.3810 C   0  0  0  0  0  0  0  0  0  0  0  0
   -4.6900    0.5680  -18.5960 N   0  0  0  0  0  0  0  0  0  0  0  0
   -9.8870    0.0570  -23.9020 O   0  0  0  0  0  0  0  0  0  0  0  0
   -5.1840   -3.6290  -21.1610 O   0  0  0  0  0  0  0  0  0  0  0  0
   -8.7650   -3.0940  -23.4720 C   0  0  2  0  0  0  0  0  0  0  0  0
  -13.3370   -0.7950  -22.9420 C   0  0  0  0  0  0  0  0  0  0  0  0
   -2.9970    1.2690  -20.1800 C   0  0  0  0  0  0  0  0  0  0  0  0
  8  2  2  0
  9  2  1  0
  9  5  1  0
 11  9  2  0
 12 11  1  0
 13  7  2  0
 14  3  1  0
 14  1  1  0
 15  4  2  0
 15 10  1  0
 16 15  1  0
 17  1  1  0
 18 13  1  0
 18  3  2  0
 19  3  1  0
 19  4  1  0
 20 19  2  0
 22 13  1  0
 22 20  1  0
 23  2  1  0
 23 21  1  0
 24 14  2  0
 25 17  1  0
 25  6  1  1
 25  5  1  0
 26 12  2  0
 26  8  1  0
 27 20  1  0
 27 10  2  0
M  END
$$$$

     RDKit          3D

 19 20  0  0  0  0  0  0  0  0999 V2000
  -10.9650   -5.4570  -26.2610 F   0  0  0  0  0  0  0  0  0  0  0  0
  -11.5230   -4.4220  -25.5590 C   0  0  0  0  0  0  0  0  0  0  0  0
  -12.8650   -4.1940  -25.6950 C   0  0  0  0  0  0  0  0  0  0  0  0
  -13.4210   -3.1710  -24.9430 C   0  0  0  0  0  0  0  0  0  0  0  0
  -12.6310   -2.3990  -24.1000 C   0  0  0  0  0  0  0  0  0  0  0  0
  -10.7050   -3.6710  -24.7310 C   0  0  0  0  0  0  0  0  0  0  0  0
  -11.2640   -2.6260  -23.9970 C   0  0  0  0  0  0  0  0  0  0  0  0
  -10.3920   -1.6910  -23.1940 C   0  0  0  0  0  0  0  0  0  0  0  0
   -9.1610   -2.3040  -22.4840 C   0  0  0  0  0  0  0  0  0  0  0  0
   -8.4440   -1.2980  -21.6070 C   0  0  0  0  0  0  0  0  0  0  0  0
   -8.9520   -0.2140  -21.3160 O   0  0  0  0  0  0  0  0  0  0  0  0
   -7.2270   -1.6970  -21.1570 N   0  0  0  0  0  0  0  0  0  0  0  0
   -6.4860   -1.0440  -20.1280 C   0  0  0  0  0  0  0  0  0  0  0  0
   -5.3060   -0.3220  -20.4320 C   0  0  0  0  0  0  0  0  0  0  0  0
   -4.7920   -0.1880  -21.8420 C   0  0  0  0  0  0  0  0  0  0  0  0
   -6.9210   -1.0630  -18.8000 C   0  0  0  0  0  0  0  0  0  0  0  0
   -6.2900   -0.4390  -17.8000 N   0  0  0  0  0  0  0  0  0  0  0  0
   -5.1670    0.2240  -18.1050 C   0  0  0  0  0  0  0  0  0  0  0  0
   -4.6520    0.3110  -19.3830 C   0  0  0  0  0  0  0  0  0  0  0  0
  2  1  1  0
  3  2  2  0
  4  3  1  0
  5  4  2  0
  6  2  1  0
  7  5  1  0
  7  6  2  0
  8  7  1  0
  9  8  1  0
 10  9  1  0
 11 10  2  0
 12 10  1  0
 13 12  1  0
 14 13  2  0
 15 14  1  0
 16 13  1  0
 17 16  2  0
 18 17  1  0
 19 18  2  0
 19 14  1  0
M  END
$$$$

     RDKit          3D

 25 28  0  0  0  0  0  0  0  0999 V2000
  -13.6250   -2.9260  -21.6430 Cl  0  0  0  0  0  0  0  0  0  0  0  0
  -12.3520   -2.2000  -22.5720 C   0  0  0  0  0  0  0  0  0  0  0  0
  -12.6310   -1.2970  -23.5880 C   0  0  0  0  0  0  0  0  0  0  0  0
  -14.2700   -0.9010  -24.0160 Cl  0  0  0  0  0  0  0  0  0  0  0  0
  -11.0440   -2.5110  -22.2610 C   0  0  0  0  0  0  0  0  0  0  0  0
   -9.9880   -1.9250  -22.9530 C   0  0  0  0  0  0  0  0  0  0  0  0
  -10.2950   -1.0310  -23.9870 C   0  0  0  0  0  0  0  0  0  0  0  0
  -11.6030   -0.7050  -24.2960 C   0  0  0  0  0  0  0  0  0  0  0  0
   -8.5470   -2.2490  -22.6170 C   0  0  1  0  0  0  0  0  0  0  0  0
   -7.6880   -2.0530  -23.8760 C   0  0  0  0  0  0  0  0  0  0  0  0
   -7.9530   -0.6910  -24.4690 C   0  0  0  0  0  0  0  0  0  0  0  0
   -9.3450   -0.4830  -24.8180 O   0  0  0  0  0  0  0  0  0  0  0  0
   -8.0720   -1.3490  -21.4730 C   0  0  0  0  0  0  0  0  0  0  0  0
   -8.6130   -0.2720  -21.2110 O   0  0  0  0  0  0  0  0  0  0  0  0
   -7.0020   -1.8170  -20.8010 N   0  0  0  0  0  0  0  0  0  0  0  0
   -6.2930   -1.1770  -19.7670 C   0  0  0  0  0  0  0  0  0  0  0  0
   -5.2180   -0.2930  -20.1070 C   0  0  0  0  0  0  0  0  0  0  0  0
   -4.7360   -0.1060  -21.4280 C   0  0  0  0  0  0  0  0  0  0  0  0
   -3.7310    0.7850  -21.6910 C   0  0  0  0  0  0  0  0  0  0  0  0
   -3.1540    1.5240  -20.6660 C   0  0  0  0  0  0  0  0  0  0  0  0
   -3.5850    1.3770  -19.3770 C   0  0  0  0  0  0  0  0  0  0  0  0
   -4.6260    0.4670  -19.0620 C   0  0  0  0  0  0  0  0  0  0  0  0
   -5.1320    0.2910  -17.7530 C   0  0  0  0  0  0  0  0  0  0  0  0
   -6.1240   -0.5290  -17.4390 N   0  0  0  0  0  0  0  0  0  0  0  0
   -6.6760   -1.2410  -18.4290 C   0  0  0  0  0  0  0  0  0  0  0  0
  2  1  1  0
  3  2  2  0
  4  3  1  0
  5  2  1  0
  6  5  2  0
  7  6  1  0
  8  3  1  0
  8  7  2  0
  9  6  1  0
 10  9  1  0
 11 10  1  0
 12 11  1  0
 12  7  1  0
  9 13  1  1
 14 13  2  0
 15 13  1  0
 16 15  1  0
 17 16  1  0
 18 17  2  0
 19 18  1  0
 20 19  2  0
 21 20  1  0
 22 21  2  0
 22 17  1  0
 23 22  1  0
 24 23  2  0
 25 24  1  0
 25 16  2  0
M  END
$$$$

     RDKit          3D

 24 26  0  0  0  0  0  0  0  0999 V2000
   -5.3560   -1.5780  -20.1210 C   0  0  0  0  0  0  0  0  0  0  0  0
  -10.0830   -3.3550  -23.8580 C   0  0  0  0  0  0  0  0  0  0  0  0
  -11.1790   -2.6340  -23.3640 C   0  0  0  0  0  0  0  0  0  0  0  0
  -12.4510   -2.8560  -23.8780 C   0  0  0  0  0  0  0  0  0  0  0  0
  -12.6620   -3.7870  -24.8820 C   0  0  0  0  0  0  0  0  0  0  0  0
  -11.5740   -4.5060  -25.3690 C   0  0  0  0  0  0  0  0  0  0  0  0
  -10.3070   -4.2940  -24.8740 C   0  0  0  0  0  0  0  0  0  0  0  0
   -4.0930    0.4890  -20.0130 C   0  0  0  0  0  0  0  0  0  0  0  0
   -5.5350   -2.7670  -21.0250 C   0  0  0  0  0  0  0  0  0  0  0  0
   -5.6660   -0.1490  -18.2320 C   0  0  0  0  0  0  0  0  0  0  0  0
   -5.9830   -1.3610  -18.9480 C   0  0  0  0  0  0  0  0  0  0  0  0
   -7.1860   -1.5700  -22.4960 C   0  0  0  0  0  0  0  0  0  0  0  0
   -8.6220   -2.0360  -22.4360 C   0  0  0  0  0  0  0  0  0  0  0  0
   -7.9300   -4.2830  -23.0700 C   0  0  0  0  0  0  0  0  0  0  0  0
   -6.4740   -3.8400  -22.9930 C   0  0  0  0  0  0  0  0  0  0  0  0
   -4.4530   -0.6840  -20.6120 N   0  0  0  0  0  0  0  0  0  0  0  0
   -4.7340    0.6870  -18.8270 N   0  0  0  0  0  0  0  0  0  0  0  0
   -6.3140   -2.6810  -22.1130 N   0  0  0  0  0  0  0  0  0  0  0  0
   -8.7910   -3.1460  -23.3770 N   0  0  0  0  0  0  0  0  0  0  0  0
   -3.2810    1.2670  -20.4810 O   0  0  0  0  0  0  0  0  0  0  0  0
   -6.1440    0.1960  -17.1760 O   0  0  0  0  0  0  0  0  0  0  0  0
   -4.9230   -3.7770  -20.7090 O   0  0  0  0  0  0  0  0  0  0  0  0
  -14.3870   -4.1040  -25.5940 Br  0  0  0  0  0  0  0  0  0  0  0  0
  -13.7960   -1.9420  -23.2360 Cl  0  0  0  0  0  0  0  0  0  0  0  0
  3  2  2  0
  4  3  1  0
  5  4  2  0
  6  5  1  0
  7  6  2  0
  7  2  1  0
  9  1  1  0
 11 10  1  0
 11  1  2  0
 13 12  1  0
 15 14  1  0
 16  8  1  0
 16  1  1  0
 17 10  1  0
 17  8  1  0
 18 15  1  0
 18 12  1  0
 18  9  1  0
 19 14  1  0
 19 13  1  0
 19  2  1  0
 20  8  2  0
 21 10  2  0
 22  9  2  0
 23  5  1  0
 24  4  1  0
M  END
$$$$

     RDKit          3D

 27 30  0  0  0  0  0  0  0  0999 V2000
   -9.5080    0.0910  -21.2820 O   0  0  0  0  0  0  0  0  0  0  0  0
   -8.9610   -0.8270  -21.8770 C   0  0  0  0  0  0  0  0  0  0  0  0
   -9.6630   -1.5270  -23.0710 C   0  0  1  0  0  0  0  0  0  0  0  0
  -11.1730   -1.2620  -23.1060 C   0  0  0  0  0  0  0  0  0  0  0  0
  -11.9810   -1.9860  -22.2280 C   0  0  0  0  0  0  0  0  0  0  0  0
  -13.3150   -1.6540  -22.0860 C   0  0  0  0  0  0  0  0  0  0  0  0
  -14.2650   -2.4850  -20.8810 Cl  0  0  0  0  0  0  0  0  0  0  0  0
  -13.8990   -0.6450  -22.8300 C   0  0  0  0  0  0  0  0  0  0  0  0
  -13.1280    0.0580  -23.7400 C   0  0  0  0  0  0  0  0  0  0  0  0
  -11.7800   -0.2490  -23.8720 C   0  0  0  0  0  0  0  0  0  0  0  0
  -10.8480    0.6580  -25.0510 S   0  0  2  0  0  0  0  0  0  0  0  0
  -11.1770    2.0470  -24.9530 O   0  0  0  0  0  0  0  0  0  0  0  0
  -10.9480    0.0100  -26.3260 O   0  0  0  0  0  0  0  0  0  0  0  0
   -9.3240    0.4610  -24.5110 N   0  0  0  0  0  0  0  0  0  0  0  0
   -8.9530   -0.9480  -24.3200 C   0  0  0  0  0  0  0  0  0  0  0  0
   -9.4310   -3.0520  -23.0360 C   0  0  0  0  0  0  0  0  0  0  0  0
   -7.7350   -1.2880  -21.5350 N   0  0  0  0  0  0  0  0  0  0  0  0
   -6.9460   -0.8210  -20.4510 C   0  0  0  0  0  0  0  0  0  0  0  0
   -5.7850   -0.0390  -20.6040 C   0  0  0  0  0  0  0  0  0  0  0  0
   -5.3660    0.4380  -21.9780 C   0  0  0  0  0  0  0  0  0  0  0  0
   -3.9890    1.0900  -22.0180 C   0  0  0  0  0  0  0  0  0  0  0  0
   -3.7360    1.9760  -20.8140 C   0  0  0  0  0  0  0  0  0  0  0  0
   -3.8270    1.1740  -19.5360 C   0  0  0  0  0  0  0  0  0  0  0  0
   -5.0840    0.3440  -19.4490 C   0  0  0  0  0  0  0  0  0  0  0  0
   -5.5880   -0.0510  -18.2240 C   0  0  0  0  0  0  0  0  0  0  0  0
   -6.7020   -0.7690  -18.0600 N   0  0  0  0  0  0  0  0  0  0  0  0
   -7.3600   -1.1520  -19.1620 C   0  0  0  0  0  0  0  0  0  0  0  0
  2  1  2  0
  3  2  1  0
  4  3  1  0
  5  4  2  0
  6  5  1  0
  7  6  1  0
  8  6  2  0
  9  8  1  0
 10  9  2  0
 10  4  1  0
 11 10  1  0
 12 11  2  0
 13 11  2  0
 11 14  1  1
 15 14  1  0
 15  3  1  0
  3 16  1  1
 17  2  1  0
 18 17  1  0
 19 18  1  0
 20 19  1  0
 21 20  1  0
 22 21  1  0
 23 22  1  0
 24 19  2  0
 24 23  1  0
 25 24  1  0
 26 25  2  0
 27 26  1  0
 27 18  2  0
M  END
$$$$

     RDKit          3D

 18 19  0  0  0  0  0  0  0  0999 V2000
  -14.1570   -3.1570  -20.8470 N   0  0  0  0  0  0  0  0  0  0  0  0
  -13.4290   -2.7030  -21.6010 C   0  0  0  0  0  0  0  0  0  0  0  0
  -12.5430   -2.1260  -22.5790 C   0  0  0  0  0  0  0  0  0  0  0  0
  -13.0590   -1.4100  -23.6580 C   0  0  0  0  0  0  0  0  0  0  0  0
  -12.1960   -0.8140  -24.5620 C   0  0  0  0  0  0  0  0  0  0  0  0
  -10.8250   -0.9330  -24.3930 C   0  0  0  0  0  0  0  0  0  0  0  0
  -11.1650   -2.2500  -22.4180 C   0  0  0  0  0  0  0  0  0  0  0  0
  -10.2970   -1.6470  -23.3240 C   0  0  0  0  0  0  0  0  0  0  0  0
   -8.8030   -1.7470  -23.1230 C   0  0  0  0  0  0  0  0  0  0  0  0
   -8.3430   -1.0170  -21.8760 C   0  0  0  0  0  0  0  0  0  0  0  0
   -8.9790   -0.0800  -21.3930 O   0  0  0  0  0  0  0  0  0  0  0  0
   -7.1800   -1.4720  -21.3650 N   0  0  0  0  0  0  0  0  0  0  0  0
   -6.4730   -0.9310  -20.2740 C   0  0  0  0  0  0  0  0  0  0  0  0
   -6.9570   -1.0570  -18.9710 C   0  0  0  0  0  0  0  0  0  0  0  0
   -6.3910   -0.4660  -17.9130 N   0  0  0  0  0  0  0  0  0  0  0  0
   -5.2940    0.2700  -18.1310 C   0  0  0  0  0  0  0  0  0  0  0  0
   -4.7270    0.4450  -19.3840 C   0  0  0  0  0  0  0  0  0  0  0  0
   -5.3270   -0.1690  -20.4690 C   0  0  0  0  0  0  0  0  0  0  0  0
  2  1  3  0
  3  2  1  0
  4  3  2  0
  5  4  1  0
  6  5  2  0
  7  3  1  0
  8  7  2  0
  8  6  1  0
  9  8  1  0
 10  9  1  0
 11 10  2  0
 12 10  1  0
 13 12  1  0
 14 13  2  0
 15 14  1  0
 16 15  2  0
 17 16  1  0
 18 13  1  0
 18 17  2  0
M  END
$$$$

     RDKit          3D

 20 21  0  0  0  0  0  0  0  0999 V2000
  -13.9300   -3.1180  -20.7460 N   0  0  0  0  0  0  0  0  0  0  0  0
  -13.2220   -2.6910  -21.5350 C   0  0  0  0  0  0  0  0  0  0  0  0
  -12.2890   -2.1690  -22.5030 C   0  0  0  0  0  0  0  0  0  0  0  0
  -12.7260   -1.3100  -23.5100 C   0  0  0  0  0  0  0  0  0  0  0  0
  -11.8040   -0.7460  -24.3800 C   0  0  0  0  0  0  0  0  0  0  0  0
  -10.4500   -1.0090  -24.2250 C   0  0  0  0  0  0  0  0  0  0  0  0
  -10.9340   -2.4620  -22.3770 C   0  0  0  0  0  0  0  0  0  0  0  0
  -10.0020   -1.8690  -23.2240 C   0  0  0  0  0  0  0  0  0  0  0  0
   -8.5180   -2.1470  -23.0160 C   0  0  1  0  0  0  0  0  0  0  0  0
   -7.6780   -1.9330  -24.2810 C   0  0  0  0  0  0  0  0  0  0  0  0
   -8.0790   -1.2820  -21.8310 C   0  0  0  0  0  0  0  0  0  0  0  0
   -8.7600   -0.3460  -21.4250 O   0  0  0  0  0  0  0  0  0  0  0  0
   -6.8980   -1.6190  -21.2780 N   0  0  0  0  0  0  0  0  0  0  0  0
   -6.3190   -0.9190  -20.2050 C   0  0  0  0  0  0  0  0  0  0  0  0
   -5.1760   -0.1310  -20.4140 C   0  0  0  0  0  0  0  0  0  0  0  0
   -4.6470    0.1640  -21.7960 C   0  0  0  0  0  0  0  0  0  0  0  0
   -4.5720    0.4190  -19.2940 C   0  0  0  0  0  0  0  0  0  0  0  0
   -5.1230    0.1990  -18.0470 C   0  0  0  0  0  0  0  0  0  0  0  0
   -6.2450   -0.5080  -17.8460 N   0  0  0  0  0  0  0  0  0  0  0  0
   -6.8280   -1.0530  -18.9140 C   0  0  0  0  0  0  0  0  0  0  0  0
  2  1  3  0
  3  2  1  0
  4  3  2  0
  5  4  1  0
  6  5  2  0
  7  3  1  0
  8  7  2  0
  8  6  1  0
  9  8  1  0
  9 10  1  6
 11  9  1  0
 12 11  2  0
 13 11  1  0
 14 13  1  0
 15 14  2  0
 16 15  1  0
 17 15  1  0
 18 17  2  0
 19 18  1  0
 20 19  2  0
 20 14  1  0
M  END
$$$$

     RDKit          3D

 24 27  0  0  0  0  0  0  0  0999 V2000
   -8.6670   -0.3840  -21.4380 O   0  0  0  0  0  0  0  0  0  0  0  0
   -8.1010   -1.4450  -21.6900 C   0  0  0  0  0  0  0  0  0  0  0  0
   -8.5140   -2.3280  -22.8690 C   0  0  2  0  0  0  0  0  0  0  0  0
   -7.5550   -2.0430  -24.0730 C   0  0  0  0  0  0  0  0  0  0  0  0
   -8.2570   -1.5050  -25.3130 C   0  0  0  0  0  0  0  0  0  0  0  0
   -9.3320   -0.5860  -24.9530 N   0  0  0  0  0  0  0  0  0  0  0  0
   -9.9720   -1.9950  -23.1250 C   0  0  0  0  0  0  0  0  0  0  0  0
  -10.2980   -1.0460  -24.1040 C   0  0  0  0  0  0  0  0  0  0  0  0
  -11.6160   -0.6080  -24.2380 C   0  0  0  0  0  0  0  0  0  0  0  0
  -12.6110   -1.1330  -23.4320 C   0  0  0  0  0  0  0  0  0  0  0  0
  -10.9880   -2.5400  -22.3440 C   0  0  0  0  0  0  0  0  0  0  0  0
  -12.2880   -2.1140  -22.5190 C   0  0  0  0  0  0  0  0  0  0  0  0
  -13.5600   -2.8960  -21.6170 Cl  0  0  0  0  0  0  0  0  0  0  0  0
   -7.0390   -1.9040  -20.9900 N   0  0  0  0  0  0  0  0  0  0  0  0
   -6.3250   -1.2260  -19.9860 C   0  0  0  0  0  0  0  0  0  0  0  0
   -5.2140   -0.4200  -20.3780 C   0  0  0  0  0  0  0  0  0  0  0  0
   -4.7230   -0.3430  -21.7060 C   0  0  0  0  0  0  0  0  0  0  0  0
   -3.6480    0.4430  -22.0120 C   0  0  0  0  0  0  0  0  0  0  0  0
   -3.0080    1.1800  -21.0280 C   0  0  0  0  0  0  0  0  0  0  0  0
   -3.4470    1.1460  -19.7370 C   0  0  0  0  0  0  0  0  0  0  0  0
   -4.5620    0.3500  -19.3750 C   0  0  0  0  0  0  0  0  0  0  0  0
   -5.0670    0.2740  -18.0560 C   0  0  0  0  0  0  0  0  0  0  0  0
   -6.1010   -0.4770  -17.6940 N   0  0  0  0  0  0  0  0  0  0  0  0
   -6.6920   -1.2100  -18.6420 C   0  0  0  0  0  0  0  0  0  0  0  0
  2  1  2  0
  3  2  1  1
  4  3  1  0
  5  4  1  0
  6  5  1  0
  7  3  1  0
  8  7  2  0
  8  6  1  0
  9  8  1  0
 10  9  2  0
 11  7  1  0
 12 11  2  0
 12 10  1  0
 13 12  1  0
 14  2  1  0
 15 14  1  0
 16 15  1  0
 17 16  2  0
 18 17  1  0
 19 18  2  0
 20 19  1  0
 21 20  2  0
 21 16  1  0
 22 21  1  0
 23 22  2  0
 24 23  1  0
 24 15  2  0
M  END
$$$$

     RDKit          3D

 24 27  0  0  0  0  0  0  0  0999 V2000
   -9.0120   -0.0890  -21.1360 O   0  0  0  0  0  0  0  0  0  0  0  0
   -8.4650   -1.1180  -21.5370 C   0  0  0  0  0  0  0  0  0  0  0  0
   -8.9930   -1.9150  -22.7340 C   0  0  2  0  0  0  0  0  0  0  0  0
   -8.1960   -1.4860  -23.9710 C   0  0  0  0  0  0  0  0  0  0  0  0
   -8.5320   -0.1070  -24.3410 N   0  0  0  0  0  0  0  0  0  0  0  0
   -9.9180    0.0130  -24.7880 C   0  0  0  0  0  0  0  0  0  0  0  0
  -10.4760   -1.6750  -22.9660 C   0  0  0  0  0  0  0  0  0  0  0  0
  -10.8960   -0.7050  -23.8910 C   0  0  0  0  0  0  0  0  0  0  0  0
  -12.2570   -0.4340  -24.0210 C   0  0  0  0  0  0  0  0  0  0  0  0
  -13.1950   -1.1070  -23.2650 C   0  0  0  0  0  0  0  0  0  0  0  0
  -11.4320   -2.3790  -22.2290 C   0  0  0  0  0  0  0  0  0  0  0  0
  -12.7700   -2.0650  -22.3700 C   0  0  0  0  0  0  0  0  0  0  0  0
  -13.9260   -2.7900  -21.2910 Cl  0  0  0  0  0  0  0  0  0  0  0  0
   -7.3220   -1.6020  -20.9930 N   0  0  0  0  0  0  0  0  0  0  0  0
   -6.5720   -1.0430  -19.9360 C   0  0  0  0  0  0  0  0  0  0  0  0
   -5.4580   -0.2010  -20.2470 C   0  0  0  0  0  0  0  0  0  0  0  0
   -5.0000    0.0480  -21.5670 C   0  0  0  0  0  0  0  0  0  0  0  0
   -3.9780    0.9250  -21.8050 C   0  0  0  0  0  0  0  0  0  0  0  0
   -3.3570    1.5880  -20.7570 C   0  0  0  0  0  0  0  0  0  0  0  0
   -3.7570    1.3810  -19.4690 C   0  0  0  0  0  0  0  0  0  0  0  0
   -4.8150    0.4840  -19.1780 C   0  0  0  0  0  0  0  0  0  0  0  0
   -5.3050    0.2670  -17.8680 C   0  0  0  0  0  0  0  0  0  0  0  0
   -6.3230   -0.5260  -17.5760 N   0  0  0  0  0  0  0  0  0  0  0  0
   -6.9300   -1.1540  -18.5920 C   0  0  0  0  0  0  0  0  0  0  0  0
  2  1  2  0
  3  2  1  1
  4  3  1  0
  5  4  1  0
  6  5  1  0
  7  3  1  0
  8  7  2  0
  8  6  1  0
  9  8  1  0
 10  9  2  0
 11  7  1  0
 12 11  2  0
 12 10  1  0
 13 12  1  0
 14  2  1  0
 15 14  1  0
 16 15  1  0
 17 16  2  0
 18 17  1  0
 19 18  2  0
 20 19  1  0
 21 16  1  0
 21 20  2  0
 22 21  1  0
 23 22  2  0
 24 23  1  0
 24 15  2  0
M  CHG  1   5   1
M  END
$$$$

     RDKit          3D

 17 18  0  0  0  0  0  0  0  0999 V2000
   -6.3240   -5.3970  -21.1340 C   0  0  0  0  0  0  0  0  0  0  0  0
   -7.7340   -5.0410  -20.7160 C   0  0  0  0  0  0  0  0  0  0  0  0
   -7.2060   -5.8090  -23.3850 C   0  0  0  0  0  0  0  0  0  0  0  0
   -7.9840   -6.9510  -23.5510 C   0  0  0  0  0  0  0  0  0  0  0  0
   -9.0210   -6.9580  -24.4680 C   0  0  0  0  0  0  0  0  0  0  0  0
   -9.2910   -5.8430  -25.2280 C   0  0  0  0  0  0  0  0  0  0  0  0
   -8.5250   -4.7130  -25.0740 C   0  0  0  0  0  0  0  0  0  0  0  0
   -7.4810   -4.6870  -24.1600 C   0  0  0  0  0  0  0  0  0  0  0  0
   -4.7890   -6.2540  -22.8190 C   0  0  1  0  0  0  0  0  0  0  0  0
   -4.5780   -7.7180  -22.4260 C   0  0  0  0  0  0  0  0  0  0  0  0
   -3.5450   -8.2670  -23.0650 C   0  0  0  0  0  0  0  0  0  0  0  0
   -4.5130   -6.2070  -24.3350 C   0  0  0  0  0  0  0  0  0  0  0  0
   -6.1180   -5.8050  -22.4330 N   0  0  0  0  0  0  0  0  0  0  0  0
   -5.4090   -5.3330  -20.3240 O   0  0  0  0  0  0  0  0  0  0  0  0
   -3.8370   -8.4120  -25.6510 O   0  0  0  0  0  0  0  0  0  0  0  0
   -2.0200   -7.0050  -24.7730 O   0  0  0  0  0  0  0  0  0  0  0  0
   -3.3540   -7.5240  -24.6280 S   0  0  2  0  0  0  0  0  0  0  0  0
  2  1  1  0
  4  3  2  0
  5  4  1  0
  6  5  2  0
  7  6  1  0
  8  3  1  0
  8  7  2  0
 10  9  1  0
 11 10  1  0
 12  9  1  0
 13  3  1  0
 13  1  1  0
  9 13  1  6
 14  1  2  0
 17 16  2  0
 17 15  2  0
 17 12  1  1
 17 11  1  0
M  END
$$$$

     RDKit          3D

 24 26  0  0  0  0  0  0  0  0999 V2000
   -9.1520   -0.0510  -21.6930 O   0  0  0  0  0  0  0  0  0  0  0  0
   -8.8050   -1.1440  -22.1260 C   0  0  0  0  0  0  0  0  0  0  0  0
   -7.3980   -1.6820  -21.8540 C   0  0  0  0  0  0  0  0  0  0  0  0
   -6.9000   -1.2580  -20.5630 N   0  0  0  0  0  0  0  0  0  0  0  0
   -5.8420   -0.4530  -20.2690 C   0  0  0  0  0  0  0  0  0  0  0  0
   -4.9300    0.2530  -21.0420 C   0  0  0  0  0  0  0  0  0  0  0  0
   -3.9730    1.0090  -20.3800 C   0  0  0  0  0  0  0  0  0  0  0  0
   -3.9330    1.0520  -18.9890 C   0  0  0  0  0  0  0  0  0  0  0  0
   -4.8440    0.3350  -18.2230 C   0  0  0  0  0  0  0  0  0  0  0  0
   -5.8100   -0.4240  -18.8790 C   0  0  0  0  0  0  0  0  0  0  0  0
   -6.8350   -1.2070  -18.3990 N   0  0  0  0  0  0  0  0  0  0  0  0
   -7.4850   -1.6950  -19.4190 N   0  0  0  0  0  0  0  0  0  0  0  0
   -9.6250   -1.9030  -22.8860 N   0  0  0  0  0  0  0  0  0  0  0  0
   -9.6490   -3.3610  -22.8620 C   0  0  0  0  0  0  0  0  0  0  0  0
  -10.5350   -1.2570  -23.8460 C   0  0  0  0  0  0  0  0  0  0  0  0
  -11.8990   -0.9120  -23.2890 C   0  0  0  0  0  0  0  0  0  0  0  0
  -12.5500    0.2720  -23.6550 C   0  0  0  0  0  0  0  0  0  0  0  0
  -11.7950    1.1640  -24.3610 O   0  0  0  0  0  0  0  0  0  0  0  0
  -11.5720    2.4470  -23.7700 C   0  0  0  0  0  0  0  0  0  0  0  0
  -12.5570   -1.7870  -22.4270 C   0  0  0  0  0  0  0  0  0  0  0  0
  -13.8160   -1.4720  -21.9570 C   0  0  0  0  0  0  0  0  0  0  0  0
  -14.5100   -2.4490  -20.6950 Cl  0  0  0  0  0  0  0  0  0  0  0  0
  -14.4760   -0.3410  -22.3690 C   0  0  0  0  0  0  0  0  0  0  0  0
  -13.8400    0.5390  -23.2230 C   0  0  0  0  0  0  0  0  0  0  0  0
  2  1  2  0
  3  2  1  0
  4  3  1  0
  5  4  1  0
  6  5  2  0
  7  6  1  0
  8  7  2  0
  9  8  1  0
 10  5  1  0
 10  9  2  0
 11 10  1  0
 12 11  2  0
 12  4  1  0
 13  2  1  0
 14 13  1  0
 15 13  1  0
 16 15  1  0
 17 16  2  0
 18 17  1  0
 19 18  1  0
 20 16  1  0
 21 20  2  0
 22 21  1  0
 23 21  1  0
 24 23  2  0
 24 17  1  0
M  END
$$$$

     RDKit          3D

 20 22  0  0  0  0  0  0  0  0999 V2000
   -8.7610   -0.1560  -21.6340 O   0  0  0  0  0  0  0  0  0  0  0  0
   -8.3680   -1.2880  -21.9200 C   0  0  0  0  0  0  0  0  0  0  0  0
   -8.9640   -2.0690  -23.0780 C   0  0  0  0  0  0  0  0  0  0  0  0
  -10.4270   -1.7540  -23.2940 C   0  0  0  0  0  0  0  0  0  0  0  0
  -10.8170   -0.7770  -24.2020 C   0  0  0  0  0  0  0  0  0  0  0  0
  -12.1490   -0.4050  -24.3170 C   0  0  0  0  0  0  0  0  0  0  0  0
  -13.1120   -0.9980  -23.5160 C   0  0  0  0  0  0  0  0  0  0  0  0
  -11.4010   -2.3830  -22.5260 C   0  0  0  0  0  0  0  0  0  0  0  0
  -12.7210   -1.9930  -22.6400 C   0  0  0  0  0  0  0  0  0  0  0  0
  -13.9230   -2.7860  -21.6610 Cl  0  0  0  0  0  0  0  0  0  0  0  0
   -7.3870   -1.9220  -21.2540 N   0  0  0  0  0  0  0  0  0  0  0  0
   -6.7420   -1.3430  -20.1720 N   0  0  0  0  0  0  0  0  0  0  0  0
   -5.6810   -0.5080  -20.2580 C   0  0  0  0  0  0  0  0  0  0  0  0
   -5.5240   -0.0700  -18.9420 C   0  0  0  0  0  0  0  0  0  0  0  0
   -6.4970   -0.6590  -18.1550 N   0  0  0  0  0  0  0  0  0  0  0  0
   -7.2360   -1.4340  -18.9050 N   0  0  0  0  0  0  0  0  0  0  0  0
   -4.8570   -0.0550  -21.2810 C   0  0  0  0  0  0  0  0  0  0  0  0
   -3.8650    0.8650  -20.9620 C   0  0  0  0  0  0  0  0  0  0  0  0
   -3.6950    1.3070  -19.6480 C   0  0  0  0  0  0  0  0  0  0  0  0
   -4.5140    0.8390  -18.6280 C   0  0  0  0  0  0  0  0  0  0  0  0
  2  1  2  0
  3  2  1  0
  4  3  1  0
  5  4  2  0
  6  5  1  0
  7  6  2  0
  8  4  1  0
  9  8  2  0
  9  7  1  0
 10  9  1  0
 11  2  1  0
 12 11  1  0
 13 12  1  0
 14 13  2  0
 15 14  1  0
 16 15  2  0
 16 12  1  0
 17 13  1  0
 18 17  2  0
 19 18  1  0
 20 14  1  0
 20 19  2  0
M  END
$$$$

     RDKit          3D

 21 23  0  0  0  0  0  0  0  0999 V2000
  -13.3770   -2.9690  -21.4790 Cl  0  0  0  0  0  0  0  0  0  0  0  0
  -12.2550   -2.1270  -22.5070 C   0  0  0  0  0  0  0  0  0  0  0  0
  -12.7360   -1.2270  -23.4350 C   0  0  0  0  0  0  0  0  0  0  0  0
  -11.8520   -0.6240  -24.3110 C   0  0  0  0  0  0  0  0  0  0  0  0
  -10.9100   -2.4180  -22.4070 C   0  0  0  0  0  0  0  0  0  0  0  0
  -10.0000   -1.7870  -23.2540 C   0  0  0  0  0  0  0  0  0  0  0  0
  -10.4960   -0.9030  -24.2170 C   0  0  0  0  0  0  0  0  0  0  0  0
   -9.6890   -0.2740  -25.1380 O   0  0  0  0  0  0  0  0  0  0  0  0
   -8.3030   -0.1240  -24.7610 C   0  0  0  0  0  0  0  0  0  0  0  0
   -7.7060   -1.4150  -24.2620 C   0  0  0  0  0  0  0  0  0  0  0  0
   -8.5050   -1.9360  -23.0520 C   0  0  1  0  0  0  0  0  0  0  0  0
   -8.1180   -1.1480  -21.8000 C   0  0  0  0  0  0  0  0  0  0  0  0
   -8.7850   -0.2030  -21.3960 O   0  0  0  0  0  0  0  0  0  0  0  0
   -6.9850   -1.5670  -21.2000 N   0  0  0  0  0  0  0  0  0  0  0  0
   -6.3590   -0.9450  -20.0940 C   0  0  0  0  0  0  0  0  0  0  0  0
   -5.2200   -0.1470  -20.3110 C   0  0  0  0  0  0  0  0  0  0  0  0
   -4.6860    0.1210  -21.6950 C   0  0  0  0  0  0  0  0  0  0  0  0
   -6.8430   -1.0790  -18.7920 C   0  0  0  0  0  0  0  0  0  0  0  0
   -6.2720   -0.5010  -17.7310 N   0  0  0  0  0  0  0  0  0  0  0  0
   -5.1790    0.2430  -17.9490 C   0  0  0  0  0  0  0  0  0  0  0  0
   -4.6290    0.4410  -19.1980 C   0  0  0  0  0  0  0  0  0  0  0  0
  2  1  1  0
  3  2  2  0
  4  3  1  0
  5  2  1  0
  6  5  2  0
  7  4  2  0
  7  6  1  0
  8  7  1  0
  9  8  1  0
 10  9  1  0
 11 10  1  0
 11  6  1  0
 11 12  1  1
 13 12  2  0
 14 12  1  0
 15 14  1  0
 16 15  2  0
 17 16  1  0
 18 15  1  0
 19 18  2  0
 20 19  1  0
 21 20  2  0
 21 16  1  0
M  END
$$$$

     RDKit          3D

 29 30  0  0  0  0  0  0  0  0999 V2000
   -8.6990    0.1060  -21.3620 O   0  0  0  0  0  0  0  0  0  0  0  0
   -7.7710   -0.1570  -22.1260 C   0  0  0  0  0  0  0  0  0  0  0  0
   -7.5950    0.4480  -23.2960 N   0  0  0  0  0  0  0  0  0  0  0  0
   -8.3650    1.6220  -23.6680 C   0  0  0  0  0  0  0  0  0  0  0  0
   -7.7930    2.8350  -23.0060 C   0  0  0  0  0  0  0  0  0  0  0  0
   -8.8010    3.7970  -22.8990 O   0  0  0  0  0  0  0  0  0  0  0  0
   -8.2480    5.0560  -22.6390 C   0  0  0  0  0  0  0  0  0  0  0  0
   -6.6900   -1.1750  -21.7340 C   0  0  1  0  0  0  0  0  0  0  0  0
   -6.0650   -0.8450  -20.3900 C   0  0  0  0  0  0  0  0  0  0  0  0
   -4.9710    0.0030  -20.3140 C   0  0  0  0  0  0  0  0  0  0  0  0
   -4.5490    0.4840  -19.0900 C   0  0  0  0  0  0  0  0  0  0  0  0
   -5.2450    0.0920  -17.9610 C   0  0  0  0  0  0  0  0  0  0  0  0
   -6.2930   -0.7350  -17.9950 N   0  0  0  0  0  0  0  0  0  0  0  0
   -6.6710   -1.1970  -19.1910 C   0  0  0  0  0  0  0  0  0  0  0  0
   -7.1030   -2.5710  -22.0230 N   0  0  0  0  0  0  0  0  0  0  0  0
   -6.2680   -3.5930  -21.6760 C   0  0  0  0  0  0  0  0  0  0  0  0
   -5.1160   -3.3900  -21.3270 O   0  0  0  0  0  0  0  0  0  0  0  0
   -6.8230   -4.9900  -21.6660 C   0  0  0  0  0  0  0  0  0  0  0  0
   -6.7160   -5.5870  -20.2990 C   0  0  0  0  0  0  0  0  0  0  0  0
   -8.3360   -2.8050  -22.7220 C   0  0  0  0  0  0  0  0  0  0  0  0
   -8.3390   -2.9700  -24.1070 C   0  0  0  0  0  0  0  0  0  0  0  0
   -9.5360   -3.1410  -24.7840 C   0  0  0  0  0  0  0  0  0  0  0  0
  -10.7540   -3.1270  -24.1100 C   0  0  0  0  0  0  0  0  0  0  0  0
  -12.0770   -3.1760  -24.8890 C   0  0  1  0  0  0  0  0  0  0  0  0
  -12.2220   -1.8930  -25.7040 C   0  0  0  0  0  0  0  0  0  0  0  0
  -12.1320   -4.3840  -25.8450 C   0  0  0  0  0  0  0  0  0  0  0  0
  -13.2920   -3.2680  -23.9650 C   0  0  0  0  0  0  0  0  0  0  0  0
  -10.7350   -2.9780  -22.7240 C   0  0  0  0  0  0  0  0  0  0  0  0
   -9.5460   -2.8260  -22.0340 C   0  0  0  0  0  0  0  0  0  0  0  0
  2  1  2  0
  3  2  1  0
  4  3  1  0
  5  4  1  0
  6  5  1  0
  7  6  1  0
  8  2  1  0
  9  8  1  0
 10  9  2  0
 11 10  1  0
 12 11  2  0
 13 12  1  0
 14 13  2  0
 14  9  1  0
  8 15  1  1
 16 15  1  0
 17 16  2  0
 18 16  1  0
 19 18  1  0
 20 15  1  0
 21 20  2  0
 22 21  1  0
 23 22  2  0
 24 23  1  0
 24 25  1  6
 26 24  1  0
 27 24  1  0
 28 23  1  0
 29 28  2  0
 29 20  1  0
M  END
$$$$

     RDKit          3D

 23 25  0  0  0  0  0  0  0  0999 V2000
   -6.3980   -0.5400  -17.8490 N   0  0  0  0  0  0  0  0  0  0  0  0
  -11.9790    3.4590  -23.2860 N   0  0  0  0  0  0  0  0  0  0  0  0
   -5.5130   -0.4490  -20.5170 C   0  0  0  0  0  0  0  0  0  0  0  0
  -13.4380   -0.8990  -22.8580 C   0  0  0  0  0  0  0  0  0  0  0  0
  -12.7160    1.1890  -23.8690 O   0  0  0  0  0  0  0  0  0  0  0  0
  -10.7530   -1.6850  -22.8710 C   0  0  0  0  0  0  0  0  0  0  0  0
   -4.8080    0.1780  -19.4930 C   0  0  0  0  0  0  0  0  0  0  0  0
  -11.1390   -0.4890  -23.4680 C   0  0  0  0  0  0  0  0  0  0  0  0
   -8.5820   -1.1730  -21.7050 C   0  0  0  0  0  0  0  0  0  0  0  0
   -6.6870   -1.1410  -20.1610 C   0  0  0  0  0  0  0  0  0  0  0  0
   -7.0760   -1.1600  -18.8220 C   0  0  0  0  0  0  0  0  0  0  0  0
  -12.5010    2.1600  -22.8270 C   0  0  2  0  0  0  0  0  0  0  0  0
  -13.0600   -2.1060  -22.2950 C   0  0  0  0  0  0  0  0  0  0  0  0
  -11.7280   -2.4930  -22.3030 C   0  0  0  0  0  0  0  0  0  0  0  0
  -12.4670   -0.0910  -23.4280 C   0  0  0  0  0  0  0  0  0  0  0  0
  -13.8490    2.8580  -22.6180 C   0  0  0  0  0  0  0  0  0  0  0  0
   -5.0590   -0.3220  -21.9480 C   0  0  0  0  0  0  0  0  0  0  0  0
   -7.4800   -1.7350  -21.1690 N   0  0  0  0  0  0  0  0  0  0  0  0
   -8.9910   -0.0600  -21.3920 O   0  0  0  0  0  0  0  0  0  0  0  0
  -13.3150    5.3370  -22.8220 O   0  0  0  0  0  0  0  0  0  0  0  0
   -9.2850   -2.0290  -22.7420 C   0  0  0  0  0  0  0  0  0  0  0  0
   -5.2820    0.1110  -18.1980 C   0  0  0  0  0  0  0  0  0  0  0  0
  -13.0770    4.1350  -22.9000 C   0  0  0  0  0  0  0  0  0  0  0  0
  7  3  1  0
  8  6  1  0
 10  3  2  0
 11 10  1  0
 11  1  2  0
 12  5  1  6
 12  2  1  0
 13  4  2  0
 14 13  1  0
 14  6  2  0
 15  8  2  0
 15  5  1  0
 15  4  1  0
 16 12  1  0
 17  3  1  0
 18 10  1  0
 18  9  1  0
 19  9  2  0
 21  6  1  0
 21  9  1  0
 22  1  1  0
 22  7  2  0
 23 20  2  0
 23 16  1  0
 23  2  1  0
M  END
$$$$

     RDKit          3D

 21 23  0  0  0  0  0  0  0  0999 V2000
   -9.1980   -0.0820  -21.3070 O   0  0  0  0  0  0  0  0  0  0  0  0
   -8.6720   -1.1260  -21.6980 C   0  0  0  0  0  0  0  0  0  0  0  0
   -9.3000   -1.9850  -22.7790 C   0  0  0  0  0  0  0  0  0  0  0  0
  -10.7710   -1.6940  -22.9760 C   0  0  0  0  0  0  0  0  0  0  0  0
  -11.1940   -0.7300  -23.8860 C   0  0  0  0  0  0  0  0  0  0  0  0
  -12.5400   -0.4090  -24.0120 C   0  0  0  0  0  0  0  0  0  0  0  0
  -13.4870   -1.0520  -23.2300 C   0  0  0  0  0  0  0  0  0  0  0  0
  -11.7260   -2.3570  -22.2110 C   0  0  0  0  0  0  0  0  0  0  0  0
  -13.0480   -2.0140  -22.3550 C   0  0  0  0  0  0  0  0  0  0  0  0
  -13.9630   -2.6430  -21.5690 F   0  0  0  0  0  0  0  0  0  0  0  0
   -7.5060   -1.6010  -21.2040 N   0  0  0  0  0  0  0  0  0  0  0  0
   -6.7510   -1.0630  -20.1420 C   0  0  0  0  0  0  0  0  0  0  0  0
   -5.6190   -0.2440  -20.4520 C   0  0  0  0  0  0  0  0  0  0  0  0
   -5.1750    0.0210  -21.7730 C   0  0  0  0  0  0  0  0  0  0  0  0
   -4.1120    0.8510  -22.0050 C   0  0  0  0  0  0  0  0  0  0  0  0
   -3.4360    1.4420  -20.9480 C   0  0  0  0  0  0  0  0  0  0  0  0
   -3.8230    1.2160  -19.6580 C   0  0  0  0  0  0  0  0  0  0  0  0
   -4.9260    0.3730  -19.3730 C   0  0  0  0  0  0  0  0  0  0  0  0
   -5.4050    0.1390  -18.0580 C   0  0  0  0  0  0  0  0  0  0  0  0
   -6.4570   -0.6150  -17.7720 N   0  0  0  0  0  0  0  0  0  0  0  0
   -7.1020   -1.1950  -18.7970 C   0  0  0  0  0  0  0  0  0  0  0  0
  2  1  2  0
  3  2  1  0
  4  3  1  0
  5  4  2  0
  6  5  1  0
  7  6  2  0
  8  4  1  0
  9  8  2  0
  9  7  1  0
 10  9  1  0
 11  2  1  0
 12 11  1  0
 13 12  1  0
 14 13  2  0
 15 14  1  0
 16 15  2  0
 17 16  1  0
 18 13  1  0
 18 17  2  0
 19 18  1  0
 20 19  2  0
 21 20  1  0
 21 12  2  0
M  END
$$$$

     RDKit          3D

 24 26  0  0  0  0  0  0  0  0999 V2000
  -13.9250   -2.8020  -21.6810 Cl  0  0  0  0  0  0  0  0  0  0  0  0
  -12.6480   -2.0940  -22.6300 C   0  0  0  0  0  0  0  0  0  0  0  0
  -12.9560   -1.1230  -23.5620 C   0  0  0  0  0  0  0  0  0  0  0  0
  -11.9240   -0.5550  -24.2930 C   0  0  0  0  0  0  0  0  0  0  0  0
  -10.6110   -0.9390  -24.0630 C   0  0  0  0  0  0  0  0  0  0  0  0
  -11.3500   -2.5000  -22.4050 C   0  0  0  0  0  0  0  0  0  0  0  0
  -10.3080   -1.8970  -23.1040 C   0  0  0  0  0  0  0  0  0  0  0  0
   -8.8770   -2.1970  -22.7300 C   0  0  0  0  0  0  0  0  0  0  0  0
   -8.3440   -1.1860  -21.7340 C   0  0  0  0  0  0  0  0  0  0  0  0
   -9.0390   -0.2620  -21.3060 O   0  0  0  0  0  0  0  0  0  0  0  0
   -7.0470   -1.3340  -21.4240 N   0  0  0  0  0  0  0  0  0  0  0  0
   -6.3750   -1.0170  -20.2330 C   0  0  0  0  0  0  0  0  0  0  0  0
   -6.9250   -1.0650  -18.9520 C   0  0  0  0  0  0  0  0  0  0  0  0
   -6.4080   -0.4830  -17.8610 N   0  0  0  0  0  0  0  0  0  0  0  0
   -5.3030    0.2300  -18.0170 C   0  0  0  0  0  0  0  0  0  0  0  0
   -5.1720   -0.2620  -20.3920 C   0  0  0  0  0  0  0  0  0  0  0  0
   -4.6420    0.4070  -19.2570 C   0  0  0  0  0  0  0  0  0  0  0  0
   -3.5400    1.2780  -19.4320 C   0  0  0  0  0  0  0  0  0  0  0  0
   -2.9820    1.4620  -20.6620 C   0  0  0  0  0  0  0  0  0  0  0  0
   -4.5520   -0.0590  -21.6510 C   0  0  0  0  0  0  0  0  0  0  0  0
   -3.4670    0.7760  -21.7820 C   0  0  0  0  0  0  0  0  0  0  0  0
   -2.7500    0.8270  -23.1040 C   0  0  0  0  0  0  0  0  0  0  0  0
   -3.3020    0.3700  -24.1160 O   0  0  0  0  0  0  0  0  0  0  0  0
   -1.5130    1.3090  -23.1210 N   0  0  0  0  0  0  0  0  0  0  0  0
  2  1  1  0
  3  2  2  0
  4  3  1  0
  5  4  2  0
  6  2  1  0
  7  6  2  0
  7  5  1  0
  8  7  1  0
  9  8  1  0
 10  9  2  0
 11  9  1  0
 12 11  1  0
 13 12  2  0
 14 13  1  0
 15 14  2  0
 16 12  1  0
 17 16  2  0
 17 15  1  0
 18 17  1  0
 19 18  2  0
 20 16  1  0
 21 20  2  0
 21 19  1  0
 22 21  1  0
 23 22  2  0
 24 22  1  0
M  END
$$$$

     RDKit          3D

 28 31  0  0  0  0  0  0  0  0999 V2000
   -8.8760   -0.1810  -21.3800 O   0  0  0  0  0  0  0  0  0  0  0  0
   -8.4870   -1.2820  -21.7450 C   0  0  0  0  0  0  0  0  0  0  0  0
   -7.4660   -2.0480  -20.9250 C   0  0  0  0  0  0  0  0  0  0  0  0
   -6.6650   -1.1670  -19.9870 C   0  0  0  0  0  0  0  0  0  0  0  0
   -5.5720   -0.3930  -20.4680 C   0  0  0  0  0  0  0  0  0  0  0  0
   -5.2050   -0.3310  -21.8370 C   0  0  0  0  0  0  0  0  0  0  0  0
   -4.1180    0.3890  -22.2400 C   0  0  0  0  0  0  0  0  0  0  0  0
   -3.3450    1.0800  -21.3170 C   0  0  0  0  0  0  0  0  0  0  0  0
   -3.6710    1.0700  -19.9910 C   0  0  0  0  0  0  0  0  0  0  0  0
   -4.7890    0.3350  -19.5310 C   0  0  0  0  0  0  0  0  0  0  0  0
   -5.1660    0.2570  -18.1700 C   0  0  0  0  0  0  0  0  0  0  0  0
   -6.2010   -0.4480  -17.7250 N   0  0  0  0  0  0  0  0  0  0  0  0
   -6.9150   -1.1340  -18.6270 C   0  0  0  0  0  0  0  0  0  0  0  0
   -8.9240   -1.8560  -22.8910 N   0  0  0  0  0  0  0  0  0  0  0  0
   -9.7900   -1.1190  -23.7920 C   0  0  0  0  0  0  0  0  0  0  0  0
  -11.2100   -1.1570  -23.3170 C   0  0  0  0  0  0  0  0  0  0  0  0
  -12.3780   -0.0760  -23.9420 S   0  0  0  0  0  0  0  0  0  0  0  0
  -13.6060   -0.7560  -22.9480 C   0  0  0  0  0  0  0  0  0  0  0  0
  -13.1620   -1.7650  -22.1680 C   0  0  0  0  0  0  0  0  0  0  0  0
  -11.7830   -2.0290  -22.3480 C   0  0  0  0  0  0  0  0  0  0  0  0
   -8.5600   -3.2160  -23.3150 C   0  0  0  0  0  0  0  0  0  0  0  0
   -7.3840   -3.1890  -24.2860 C   0  0  0  0  0  0  0  0  0  0  0  0
   -7.2970   -4.1860  -25.4620 C   0  0  1  0  0  0  0  0  0  0  0  0
   -6.0370   -5.0510  -25.4120 C   0  0  0  0  0  0  0  0  0  0  0  0
   -5.8980   -5.9490  -26.6430 C   0  0  0  0  0  0  0  0  0  0  0  0
   -7.1320   -6.8200  -26.8480 C   0  0  0  0  0  0  0  0  0  0  0  0
   -8.4020   -5.9730  -26.8780 C   0  0  0  0  0  0  0  0  0  0  0  0
   -8.5170   -5.0880  -25.6340 C   0  0  0  0  0  0  0  0  0  0  0  0
  2  1  2  0
  3  2  1  0
  4  3  1  0
  5  4  1  0
  6  5  2  0
  7  6  1  0
  8  7  2  0
  9  8  1  0
 10  5  1  0
 10  9  2  0
 11 10  1  0
 12 11  2  0
 13 12  1  0
 13  4  2  0
 14  2  1  0
 15 14  1  0
 16 15  1  0
 17 16  1  0
 18 17  1  0
 19 18  2  0
 20 19  1  0
 20 16  2  0
 21 14  1  0
 22 21  1  0
 23 22  1  1
 24 23  1  0
 25 24  1  0
 26 25  1  0
 27 26  1  0
 28 27  1  0
 28 23  1  0
M  END
$$$$

     RDKit          3D

 17 18  0  0  0  0  0  0  0  0999 V2000
   -9.0390   -0.5270  -21.1890 O   0  0  0  0  0  0  0  0  0  0  0  0
   -8.2740   -1.2640  -21.8030 C   0  0  0  0  0  0  0  0  0  0  0  0
   -6.9920   -1.4930  -21.4460 N   0  0  0  0  0  0  0  0  0  0  0  0
   -6.3560   -0.9260  -20.3110 C   0  0  0  0  0  0  0  0  0  0  0  0
   -6.9270   -1.0370  -19.0390 C   0  0  0  0  0  0  0  0  0  0  0  0
   -6.3870   -0.4950  -17.9420 N   0  0  0  0  0  0  0  0  0  0  0  0
   -5.2330    0.1740  -18.0950 C   0  0  0  0  0  0  0  0  0  0  0  0
   -4.5930    0.3350  -19.3110 C   0  0  0  0  0  0  0  0  0  0  0  0
   -5.1530   -0.2090  -20.4580 C   0  0  0  0  0  0  0  0  0  0  0  0
   -4.5030    0.0030  -21.8050 C   0  0  0  0  0  0  0  0  0  0  0  0
   -8.7010   -1.9280  -23.0980 C   0  0  0  0  0  0  0  0  0  0  0  0
  -10.1300   -1.7320  -23.3290 N   0  0  1  0  0  0  0  0  0  0  0  0
  -10.4730   -1.8970  -24.7540 C   0  0  0  0  0  0  0  0  0  0  0  0
  -11.9480   -1.6420  -25.0040 C   0  0  0  0  0  0  0  0  0  0  0  0
  -12.8140   -2.5320  -24.1340 C   0  0  0  0  0  0  0  0  0  0  0  0
  -12.3950   -2.4350  -22.6720 C   0  0  0  0  0  0  0  0  0  0  0  0
  -10.9120   -2.6810  -22.5170 C   0  0  0  0  0  0  0  0  0  0  0  0
  2  1  2  0
  3  2  1  0
  4  3  1  0
  5  4  2  0
  6  5  1  0
  7  6  2  0
  8  7  1  0
  9  4  1  0
  9  8  2  0
 10  9  1  0
 11  2  1  0
 12 11  1  6
 13 12  1  0
 14 13  1  0
 15 14  1  0
 16 15  1  0
 17 16  1  0
 17 12  1  0
M  CHG  1  12   1
M  END
$$$$

     RDKit          3D

 21 23  0  0  0  0  0  0  0  0999 V2000
   -8.8650   -0.2240  -21.2160 O   0  0  0  0  0  0  0  0  0  0  0  0
   -8.2830   -1.2430  -21.5850 C   0  0  0  0  0  0  0  0  0  0  0  0
   -8.8310   -2.1360  -22.6800 C   0  0  0  0  0  0  0  0  0  0  0  0
  -10.2890   -1.8700  -22.9720 C   0  0  0  0  0  0  0  0  0  0  0  0
  -11.2840   -2.5740  -22.3080 C   0  0  0  0  0  0  0  0  0  0  0  0
  -12.6220   -2.3320  -22.5590 C   0  0  0  0  0  0  0  0  0  0  0  0
  -10.6660   -0.9120  -23.9040 C   0  0  0  0  0  0  0  0  0  0  0  0
  -12.0000   -0.6570  -24.1700 C   0  0  0  0  0  0  0  0  0  0  0  0
  -12.9440   -1.3810  -23.4910 C   0  0  0  0  0  0  0  0  0  0  0  0
  -14.2520   -1.1920  -23.8000 F   0  0  0  0  0  0  0  0  0  0  0  0
   -7.1150   -1.6650  -21.0620 N   0  0  0  0  0  0  0  0  0  0  0  0
   -6.4060   -1.0890  -19.9990 C   0  0  0  0  0  0  0  0  0  0  0  0
   -5.3190   -0.2120  -20.3000 C   0  0  0  0  0  0  0  0  0  0  0  0
   -4.8260    0.0140  -21.6130 C   0  0  0  0  0  0  0  0  0  0  0  0
   -3.7930    0.8800  -21.8370 C   0  0  0  0  0  0  0  0  0  0  0  0
   -3.1990    1.5600  -20.7810 C   0  0  0  0  0  0  0  0  0  0  0  0
   -3.6310    1.3680  -19.5000 C   0  0  0  0  0  0  0  0  0  0  0  0
   -4.6990    0.4770  -19.2230 C   0  0  0  0  0  0  0  0  0  0  0  0
   -5.1960    0.2420  -17.9170 C   0  0  0  0  0  0  0  0  0  0  0  0
   -6.1990   -0.5800  -17.6370 N   0  0  0  0  0  0  0  0  0  0  0  0
   -6.7770   -1.2250  -18.6610 C   0  0  0  0  0  0  0  0  0  0  0  0
  2  1  2  0
  3  2  1  0
  4  3  1  0
  5  4  2  0
  6  5  1  0
  7  4  1  0
  8  7  2  0
  9  8  1  0
  9  6  2  0
 10  9  1  0
 11  2  1  0
 12 11  1  0
 13 12  1  0
 14 13  2  0
 15 14  1  0
 16 15  2  0
 17 16  1  0
 18 17  2  0
 18 13  1  0
 19 18  1  0
 20 19  2  0
 21 20  1  0
 21 12  2  0
M  END
$$$$

     RDKit          3D

 21 23  0  0  0  0  0  0  0  0999 V2000
   -8.8840   -0.1270  -21.2300 O   0  0  0  0  0  0  0  0  0  0  0  0
   -8.3430   -1.1940  -21.5270 C   0  0  0  0  0  0  0  0  0  0  0  0
   -8.9150   -2.1250  -22.5800 C   0  0  0  0  0  0  0  0  0  0  0  0
  -10.3560   -1.8160  -22.9110 C   0  0  0  0  0  0  0  0  0  0  0  0
  -10.6920   -0.7840  -23.7740 C   0  0  0  0  0  0  0  0  0  0  0  0
  -11.9500   -0.4040  -24.0400 N   0  0  0  0  0  0  0  0  0  0  0  0
  -12.9450   -1.0700  -23.4380 C   0  0  0  0  0  0  0  0  0  0  0  0
  -11.3970   -2.5070  -22.3040 C   0  0  0  0  0  0  0  0  0  0  0  0
  -12.6960   -2.1190  -22.5570 C   0  0  0  0  0  0  0  0  0  0  0  0
  -13.9980   -2.8870  -21.6890 Cl  0  0  0  0  0  0  0  0  0  0  0  0
   -7.2080   -1.6390  -20.9580 N   0  0  0  0  0  0  0  0  0  0  0  0
   -6.4570   -1.0330  -19.9360 C   0  0  0  0  0  0  0  0  0  0  0  0
   -5.3530   -0.1970  -20.2920 C   0  0  0  0  0  0  0  0  0  0  0  0
   -4.8900   -0.0240  -21.6240 C   0  0  0  0  0  0  0  0  0  0  0  0
   -3.8290    0.7960  -21.8990 C   0  0  0  0  0  0  0  0  0  0  0  0
   -3.1850    1.4870  -20.8740 C   0  0  0  0  0  0  0  0  0  0  0  0
   -3.5980    1.3540  -19.5790 C   0  0  0  0  0  0  0  0  0  0  0  0
   -4.6850    0.5050  -19.2510 C   0  0  0  0  0  0  0  0  0  0  0  0
   -5.1480    0.3120  -17.9270 C   0  0  0  0  0  0  0  0  0  0  0  0
   -6.1640   -0.4750  -17.5970 N   0  0  0  0  0  0  0  0  0  0  0  0
   -6.7930   -1.1220  -18.5860 C   0  0  0  0  0  0  0  0  0  0  0  0
  2  1  2  0
  3  2  1  0
  4  3  1  0
  5  4  2  0
  6  5  1  0
  7  6  2  0
  8  4  1  0
  9  8  2  0
  9  7  1  0
 10  9  1  0
 11  2  1  0
 12 11  1  0
 13 12  1  0
 14 13  2  0
 15 14  1  0
 16 15  2  0
 17 16  1  0
 18 17  2  0
 18 13  1  0
 19 18  1  0
 20 19  2  0
 21 20  1  0
 21 12  2  0
M  END
$$$$

     RDKit          3D

 18 19  0  0  0  0  0  0  0  0999 V2000
  -10.5860   -0.8320  -23.9730 C   0  0  0  0  0  0  0  0  0  0  0  0
   -6.2400   -0.4250  -17.5850 N   0  0  0  0  0  0  0  0  0  0  0  0
  -10.9880   -2.3430  -22.1930 C   0  0  0  0  0  0  0  0  0  0  0  0
  -11.8930   -0.6090  -24.1700 N   0  0  0  0  0  0  0  0  0  0  0  0
   -5.1790   -0.1930  -20.1790 C   0  0  0  0  0  0  0  0  0  0  0  0
  -12.3350   -2.1360  -22.3920 C   0  0  0  0  0  0  0  0  0  0  0  0
   -4.6320    0.0000  -21.5700 C   0  0  0  0  0  0  0  0  0  0  0  0
  -10.0770   -1.6720  -22.9980 C   0  0  0  0  0  0  0  0  0  0  0  0
   -4.5860    0.4420  -19.0920 C   0  0  0  0  0  0  0  0  0  0  0  0
   -8.1200   -1.1040  -21.5490 C   0  0  0  0  0  0  0  0  0  0  0  0
   -6.9910   -1.5920  -21.0030 N   0  0  0  0  0  0  0  0  0  0  0  0
   -8.7210   -0.1360  -21.1000 O   0  0  0  0  0  0  0  0  0  0  0  0
   -6.3250   -0.9700  -19.9270 C   0  0  0  0  0  0  0  0  0  0  0  0
   -8.5890   -1.8300  -22.7940 C   0  0  0  0  0  0  0  0  0  0  0  0
   -6.8110   -1.0540  -18.6200 C   0  0  0  0  0  0  0  0  0  0  0  0
  -12.7610   -1.2440  -23.3730 C   0  0  0  0  0  0  0  0  0  0  0  0
   -5.1390    0.2960  -17.8330 C   0  0  0  0  0  0  0  0  0  0  0  0
  -13.4830   -3.0820  -21.4880 Cl  0  0  0  0  0  0  0  0  0  0  0  0
  4  1  2  0
  6  3  1  0
  7  5  1  0
  8  3  2  0
  8  1  1  0
  9  5  1  0
 11 10  1  0
 12 10  2  0
 13 11  1  0
 13  5  2  0
 14  8  1  0
 14 10  1  0
 15 13  1  0
 15  2  2  0
 16  6  2  0
 16  4  1  0
 17  2  1  0
 17  9  2  0
 18  6  1  0
M  END
$$$$

     RDKit          3D

 32 36  0  0  0  0  0  0  0  0999 V2000
  -10.4350    1.9720  -24.6830 O   0  0  0  0  0  0  0  0  0  0  0  0
  -10.0750    0.8310  -24.4440 C   0  0  0  0  0  0  0  0  0  0  0  0
   -8.7780    0.4400  -24.6240 N   0  0  0  0  0  0  0  0  0  0  0  0
   -7.8170    1.3800  -25.2430 C   0  0  1  0  0  0  0  0  0  0  0  0
   -7.0270    0.8520  -26.4080 C   0  0  0  0  0  0  0  0  0  0  0  0
   -8.1240    1.8300  -26.6450 C   0  0  0  0  0  0  0  0  0  0  0  0
   -7.1010    2.3940  -24.3490 C   0  0  0  0  0  0  0  0  0  0  0  0
   -6.1130    2.9630  -24.7890 O   0  0  0  0  0  0  0  0  0  0  0  0
   -7.5860    2.6120  -23.1320 N   0  0  0  0  0  0  0  0  0  0  0  0
   -6.9630    3.5590  -22.2290 C   0  0  0  0  0  0  0  0  0  0  0  0
  -10.9780   -0.1450  -23.8100 C   0  0  0  0  0  0  0  0  0  0  0  0
  -12.3410    0.1410  -23.7250 C   0  0  0  0  0  0  0  0  0  0  0  0
  -13.2040   -0.7520  -23.1170 C   0  0  0  0  0  0  0  0  0  0  0  0
  -12.6980   -1.9200  -22.5920 C   0  0  0  0  0  0  0  0  0  0  0  0
  -13.7870   -3.0450  -21.8360 Cl  0  0  0  0  0  0  0  0  0  0  0  0
  -11.3470   -2.2080  -22.6210 C   0  0  0  0  0  0  0  0  0  0  0  0
  -10.4650   -1.3020  -23.2090 C   0  0  0  0  0  0  0  0  0  0  0  0
   -8.9720   -1.5120  -23.1020 C   0  0  1  0  0  0  0  0  0  0  0  0
   -8.2790   -0.9220  -24.3290 C   0  0  0  0  0  0  0  0  0  0  0  0
   -8.4390   -0.8040  -21.8510 C   0  0  0  0  0  0  0  0  0  0  0  0
   -8.9030    0.2700  -21.4540 O   0  0  0  0  0  0  0  0  0  0  0  0
   -7.3790   -1.4170  -21.2620 N   0  0  0  0  0  0  0  0  0  0  0  0
   -6.6150   -0.9670  -20.1630 C   0  0  0  0  0  0  0  0  0  0  0  0
   -5.5210   -0.0850  -20.4170 C   0  0  0  0  0  0  0  0  0  0  0  0
   -5.0120    0.1830  -21.7130 C   0  0  0  0  0  0  0  0  0  0  0  0
   -3.9560    1.0320  -21.8890 C   0  0  0  0  0  0  0  0  0  0  0  0
   -3.3620    1.6600  -20.8040 C   0  0  0  0  0  0  0  0  0  0  0  0
   -3.8110    1.4280  -19.5350 C   0  0  0  0  0  0  0  0  0  0  0  0
   -4.8860    0.5360  -19.3040 C   0  0  0  0  0  0  0  0  0  0  0  0
   -5.3430    0.1940  -18.0060 C   0  0  0  0  0  0  0  0  0  0  0  0
   -6.3230   -0.6690  -17.7670 N   0  0  0  0  0  0  0  0  0  0  0  0
   -6.9350   -1.2190  -18.8270 C   0  0  0  0  0  0  0  0  0  0  0  0
  2  1  2  0
  3  2  1  0
  4  3  1  1
  5  4  1  0
  6  5  1  0
  6  4  1  0
  7  4  1  0
  8  7  2  0
  9  7  1  0
 10  9  1  0
 11  2  1  0
 12 11  2  0
 13 12  1  0
 14 13  2  0
 15 14  1  0
 16 14  1  0
 17 16  2  0
 17 11  1  0
 18 17  1  0
 19 18  1  0
 19  3  1  0
 18 20  1  1
 21 20  2  0
 22 20  1  0
 23 22  1  0
 24 23  1  0
 25 24  2  0
 26 25  1  0
 27 26  2  0
 28 27  1  0
 29 24  1  0
 29 28  2  0
 30 29  1  0
 31 30  2  0
 32 31  1  0
 32 23  2  0
M  END
$$$$

     RDKit          3D

 16 17  0  0  0  0  0  0  0  0999 V2000
   -8.5620   -0.8800  -21.9910 C   0  0  0  0  0  0  0  0  0  0  0  0
   -9.0730   -1.3970  -23.3300 C   0  0  0  0  0  0  0  0  0  0  0  0
  -10.5910   -1.3470  -23.4280 C   0  0  2  0  0  0  0  0  0  0  0  0
  -11.2370   -2.2980  -22.4220 C   0  0  0  0  0  0  0  0  0  0  0  0
  -12.4520   -3.0340  -22.9820 C   0  0  0  0  0  0  0  0  0  0  0  0
  -13.2660   -2.2360  -23.9910 C   0  0  0  0  0  0  0  0  0  0  0  0
  -12.4360   -1.5180  -25.0490 C   0  0  0  0  0  0  0  0  0  0  0  0
  -10.9360   -1.6990  -24.8650 C   0  0  0  0  0  0  0  0  0  0  0  0
   -6.7200   -0.9310  -20.3480 C   0  0  0  0  0  0  0  0  0  0  0  0
   -5.4810   -0.3040  -20.4470 C   0  0  0  0  0  0  0  0  0  0  0  0
   -4.9160    0.1570  -19.2620 C   0  0  0  0  0  0  0  0  0  0  0  0
   -5.6160   -0.0250  -18.0790 C   0  0  0  0  0  0  0  0  0  0  0  0
   -7.3810   -1.0740  -19.1420 C   0  0  0  0  0  0  0  0  0  0  0  0
   -7.2990   -1.3960  -21.5720 N   0  0  0  0  0  0  0  0  0  0  0  0
   -6.8000   -0.6190  -18.0520 N   0  0  0  0  0  0  0  0  0  0  0  0
   -9.1530   -0.0950  -21.3210 O   0  0  0  0  0  0  0  0  0  0  0  0
  2  1  1  0
  3  2  1  6
  4  3  1  0
  5  4  1  0
  6  5  1  0
  7  6  1  0
  8  7  1  0
  8  3  1  0
 10  9  2  0
 11 10  1  0
 12 11  2  0
 13  9  1  0
 14  1  1  0
 14  9  1  0
 15 13  2  0
 15 12  1  0
 16  1  2  0
M  END
$$$$

     RDKit          3D

 28 31  0  0  0  0  0  0  0  0999 V2000
   -8.8600    0.3320  -21.3000 O   0  0  0  0  0  0  0  0  0  0  0  0
   -8.6020   -0.7100  -21.8840 C   0  0  0  0  0  0  0  0  0  0  0  0
   -8.9850   -0.9330  -23.1770 N   0  0  0  0  0  0  0  0  0  0  0  0
   -9.4220    0.2280  -23.9470 C   0  0  0  0  0  0  0  0  0  0  0  0
  -10.9020    0.4860  -23.8000 C   0  0  0  0  0  0  0  0  0  0  0  0
  -11.5060    1.7110  -23.3940 C   0  0  0  0  0  0  0  0  0  0  0  0
  -12.8790    1.6230  -23.2830 C   0  0  0  0  0  0  0  0  0  0  0  0
  -13.4190    0.0420  -23.6840 S   0  0  0  0  0  0  0  0  0  0  0  0
  -11.8280   -0.4960  -23.9920 C   0  0  0  0  0  0  0  0  0  0  0  0
   -8.8310   -2.1770  -23.8560 C   0  0  0  0  0  0  0  0  0  0  0  0
   -8.5480   -2.2180  -25.2160 C   0  0  0  0  0  0  0  0  0  0  0  0
   -8.4380   -3.4300  -25.8770 C   0  0  0  0  0  0  0  0  0  0  0  0
   -9.2060   -3.3530  -23.2190 C   0  0  0  0  0  0  0  0  0  0  0  0
   -9.1260   -4.5650  -23.8790 C   0  0  0  0  0  0  0  0  0  0  0  0
   -8.7350   -4.6290  -25.2220 C   0  0  0  0  0  0  0  0  0  0  0  0
   -8.6840   -5.8310  -25.8860 N   0  0  0  0  0  0  0  0  0  0  0  0
   -7.7400   -6.0410  -26.9760 C   0  0  0  0  0  0  0  0  0  0  0  0
   -9.0270   -7.0610  -25.1980 C   0  0  0  0  0  0  0  0  0  0  0  0
   -7.7440   -1.7810  -21.2060 C   0  0  0  0  0  0  0  0  0  0  0  0
   -6.9010   -1.2070  -20.1780 N   0  0  0  0  0  0  0  0  0  0  0  0
   -5.7690   -0.4600  -20.3020 C   0  0  0  0  0  0  0  0  0  0  0  0
   -5.0000   -0.0600  -21.3840 C   0  0  0  0  0  0  0  0  0  0  0  0
   -3.8880    0.7260  -21.1220 C   0  0  0  0  0  0  0  0  0  0  0  0
   -3.5680    1.1080  -19.8210 C   0  0  0  0  0  0  0  0  0  0  0  0
   -4.3490    0.7060  -18.7460 C   0  0  0  0  0  0  0  0  0  0  0  0
   -5.4600   -0.0940  -18.9960 C   0  0  0  0  0  0  0  0  0  0  0  0
   -6.4010   -0.6350  -18.1520 N   0  0  0  0  0  0  0  0  0  0  0  0
   -7.2530   -1.3050  -18.8710 N   0  0  0  0  0  0  0  0  0  0  0  0
  2  1  2  0
  3  2  1  0
  4  3  1  0
  5  4  1  0
  6  5  1  0
  7  6  2  0
  8  7  1  0
  9  8  1  0
  9  5  2  0
 10  3  1  0
 11 10  2  0
 12 11  1  0
 13 10  1  0
 14 13  2  0
 15 14  1  0
 15 12  2  0
 16 15  1  0
 17 16  1  0
 18 16  1  0
 19  2  1  0
 20 19  1  0
 21 20  1  0
 22 21  2  0
 23 22  1  0
 24 23  2  0
 25 24  1  0
 26 21  1  0
 26 25  2  0
 27 26  1  0
 28 27  2  0
 28 20  1  0
M  END
$$$$

     RDKit          3D

 20 21  0  0  0  0  0  0  0  0999 V2000
  -13.6260   -2.8060  -21.3680 Cl  0  0  0  0  0  0  0  0  0  0  0  0
  -12.5750   -1.8750  -22.3970 C   0  0  0  0  0  0  0  0  0  0  0  0
  -13.1270   -0.9530  -23.2660 C   0  0  0  0  0  0  0  0  0  0  0  0
  -12.2940   -0.3140  -24.1700 C   0  0  0  0  0  0  0  0  0  0  0  0
  -10.9340   -0.5810  -24.1780 C   0  0  0  0  0  0  0  0  0  0  0  0
  -11.2200   -2.1310  -22.3710 C   0  0  0  0  0  0  0  0  0  0  0  0
  -10.3790   -1.4760  -23.2670 C   0  0  0  0  0  0  0  0  0  0  0  0
   -8.8610   -1.7100  -23.1890 C   0  0  1  0  0  0  0  0  0  0  0  0
   -8.5800   -3.2240  -23.2100 C   0  0  0  0  0  0  0  0  0  0  0  0
   -8.1060   -1.0760  -24.3720 C   0  0  0  0  0  0  0  0  0  0  0  0
   -8.3190   -1.0450  -21.9060 C   0  0  0  0  0  0  0  0  0  0  0  0
   -8.8360   -0.0280  -21.4700 O   0  0  0  0  0  0  0  0  0  0  0  0
   -7.2340   -1.6190  -21.3360 N   0  0  0  0  0  0  0  0  0  0  0  0
   -6.5330   -1.0700  -20.2370 C   0  0  0  0  0  0  0  0  0  0  0  0
   -5.3350   -0.3690  -20.4600 C   0  0  0  0  0  0  0  0  0  0  0  0
   -4.7580   -0.1910  -21.8400 C   0  0  0  0  0  0  0  0  0  0  0  0
   -7.0410   -1.1280  -18.9410 C   0  0  0  0  0  0  0  0  0  0  0  0
   -6.4690   -0.5220  -17.8950 N   0  0  0  0  0  0  0  0  0  0  0  0
   -5.3300    0.1370  -18.1180 C   0  0  0  0  0  0  0  0  0  0  0  0
   -4.7300    0.2280  -19.3580 C   0  0  0  0  0  0  0  0  0  0  0  0
  2  1  1  0
  3  2  2  0
  4  3  1  0
  5  4  2  0
  6  2  1  0
  7  6  2  0
  7  5  1  0
  8  7  1  0
  8  9  1  1
 10  8  1  0
 11  8  1  0
 12 11  2  0
 13 11  1  0
 14 13  1  0
 15 14  2  0
 16 15  1  0
 17 14  1  0
 18 17  2  0
 19 18  1  0
 20 19  2  0
 20 15  1  0
M  END
$$$$

     RDKit          3D

 24 28  0  0  0  0  0  0  0  0999 V2000
  -10.4740   -2.2700  -23.9490 C   0  0  2  0  0  0  0  0  0  0  0  0
   -4.3790    0.5140  -19.3330 C   0  0  0  0  0  0  0  0  0  0  0  0
  -11.8810   -1.6280  -23.9980 C   0  0  2  0  0  0  0  0  0  0  0  0
  -13.0320   -2.4020  -23.3340 C   0  0  0  0  0  0  0  0  0  0  0  0
   -6.1240   -0.8990  -20.2710 C   0  0  0  0  0  0  0  0  0  0  0  0
  -13.4640   -2.8740  -24.7290 C   0  0  0  0  0  0  0  0  0  0  0  0
  -12.6420   -1.7180  -25.3230 C   0  0  0  0  0  0  0  0  0  0  0  0
   -9.9890   -2.7480  -22.5650 C   0  0  0  0  0  0  0  0  0  0  0  0
   -8.1370   -1.1810  -21.7260 C   0  0  0  0  0  0  0  0  0  0  0  0
   -6.5580   -1.1630  -18.9740 C   0  0  0  0  0  0  0  0  0  0  0  0
   -4.9220    0.1560  -18.0740 C   0  0  0  0  0  0  0  0  0  0  0  0
   -7.4460   -2.9170  -22.9690 N   0  0  0  0  0  0  0  0  0  0  0  0
   -6.8130   -1.4720  -21.3960 N   0  0  0  0  0  0  0  0  0  0  0  0
   -9.2260   -1.3720  -24.0660 C   0  0  0  0  0  0  0  0  0  0  0  0
   -5.9550   -0.6440  -17.8990 N   0  0  0  0  0  0  0  0  0  0  0  0
   -5.4670   -3.3070  -21.8500 O   0  0  0  0  0  0  0  0  0  0  0  0
   -6.4630   -2.6500  -22.0620 C   0  0  0  0  0  0  0  0  0  0  0  0
   -8.6180   -2.0740  -22.8230 C   0  0  1  0  0  0  0  0  0  0  0  0
   -8.7970   -0.3070  -21.1950 O   0  0  0  0  0  0  0  0  0  0  0  0
   -3.2670    1.3680  -19.4860 C   0  0  0  0  0  0  0  0  0  0  0  0
   -2.8000    1.6640  -20.7330 C   0  0  0  0  0  0  0  0  0  0  0  0
   -3.4150    1.1240  -21.8760 C   0  0  0  0  0  0  0  0  0  0  0  0
   -4.4990    0.2990  -21.7590 C   0  0  0  0  0  0  0  0  0  0  0  0
   -5.0060   -0.0310  -20.4820 C   0  0  0  0  0  0  0  0  0  0  0  0
  3  1  1  0
  3  4  1  1
  6  4  1  0
  7  6  1  0
  7  3  1  0
  1  8  1  1
 10  5  2  0
 11  2  1  0
 13  9  1  0
 13  5  1  0
 14  1  1  0
 15 10  1  0
 15 11  2  0
 17 16  2  0
 17 12  1  0
 17 13  1  0
 18 14  1  6
 18 12  1  0
 18  8  1  0
 18  9  1  0
 19  9  2  0
 20  2  2  0
 21 20  1  0
 22 21  2  0
 23 22  1  0
 24  5  1  0
 24 23  2  0
 24  2  1  0
M  END
$$$$

     RDKit          3D

 32 35  0  0  0  0  0  0  0  0999 V2000
  -10.8450   -0.3170  -26.5310 O   0  0  0  0  0  0  0  0  0  0  0  0
  -10.9570    0.4920  -25.3560 S   0  0  2  0  0  0  0  0  0  0  0  0
  -11.5020    1.8090  -25.4680 O   0  0  0  0  0  0  0  0  0  0  0  0
   -9.4760    0.6080  -24.6660 N   0  0  0  0  0  0  0  0  0  0  0  0
   -9.3240    1.6150  -23.6010 C   0  0  0  0  0  0  0  0  0  0  0  0
   -8.0940    2.4830  -23.7890 C   0  0  0  0  0  0  0  0  0  0  0  0
   -7.6380    2.7110  -24.9080 O   0  0  0  0  0  0  0  0  0  0  0  0
   -7.5460    2.9620  -22.6770 N   0  0  0  0  0  0  0  0  0  0  0  0
   -6.2770    3.6660  -22.6790 C   0  0  0  0  0  0  0  0  0  0  0  0
  -11.8250   -0.3840  -24.1140 C   0  0  0  0  0  0  0  0  0  0  0  0
  -13.1540   -0.0590  -23.8930 C   0  0  0  0  0  0  0  0  0  0  0  0
  -13.8690   -0.7470  -22.9340 C   0  0  0  0  0  0  0  0  0  0  0  0
  -13.2530   -1.7600  -22.2350 C   0  0  0  0  0  0  0  0  0  0  0  0
  -14.1010   -2.4970  -20.9070 Cl  0  0  0  0  0  0  0  0  0  0  0  0
  -11.9400   -2.1200  -22.4680 C   0  0  0  0  0  0  0  0  0  0  0  0
  -11.1740   -1.3850  -23.3720 C   0  0  0  0  0  0  0  0  0  0  0  0
   -9.6480   -1.5480  -23.3350 C   0  0  2  0  0  0  0  0  0  0  0  0
   -8.8800   -0.7200  -24.4050 C   0  0  0  0  0  0  0  0  0  0  0  0
   -9.3370   -3.0440  -23.5350 C   0  0  0  0  0  0  0  0  0  0  0  0
   -9.0620   -1.0550  -21.9820 C   0  0  0  0  0  0  0  0  0  0  0  0
   -9.6280   -0.1820  -21.3440 O   0  0  0  0  0  0  0  0  0  0  0  0
   -7.8690   -1.5680  -21.5910 N   0  0  0  0  0  0  0  0  0  0  0  0
   -7.1200   -1.1800  -20.4570 C   0  0  0  0  0  0  0  0  0  0  0  0
   -5.9500   -0.3840  -20.6530 C   0  0  0  0  0  0  0  0  0  0  0  0
   -5.4170   -0.0670  -21.9260 C   0  0  0  0  0  0  0  0  0  0  0  0
   -4.2640    0.6540  -22.0470 C   0  0  0  0  0  0  0  0  0  0  0  0
   -3.5910    1.1100  -20.9210 C   0  0  0  0  0  0  0  0  0  0  0  0
   -4.0690    0.8430  -19.6700 C   0  0  0  0  0  0  0  0  0  0  0  0
   -5.2530    0.0860  -19.4990 C   0  0  0  0  0  0  0  0  0  0  0  0
   -5.7670   -0.2730  -18.2260 C   0  0  0  0  0  0  0  0  0  0  0  0
   -6.8410   -1.0260  -18.0440 N   0  0  0  0  0  0  0  0  0  0  0  0
   -7.4860   -1.4600  -19.1380 C   0  0  0  0  0  0  0  0  0  0  0  0
  2  1  2  0
  3  2  2  0
  2  4  1  1
  5  4  1  0
  6  5  1  0
  7  6  2  0
  8  6  1  0
  9  8  1  0
 10  2  1  0
 11 10  2  0
 12 11  1  0
 13 12  2  0
 14 13  1  0
 15 13  1  0
 16 15  2  0
 16 10  1  0
 17 16  1  0
 18 17  1  0
 18  4  1  0
 17 19  1  6
 20 17  1  0
 21 20  2  0
 22 20  1  0
 23 22  1  0
 24 23  1  0
 25 24  2  0
 26 25  1  0
 27 26  2  0
 28 27  1  0
 29 24  1  0
 29 28  2  0
 30 29  1  0
 31 30  2  0
 32 31  1  0
 32 23  2  0
M  END
$$$$

     RDKit          3D

 28 31  0  0  0  0  0  0  0  0999 V2000
  -14.0290   -2.8700  -21.1480 Cl  0  0  0  0  0  0  0  0  0  0  0  0
  -12.9710   -2.0280  -22.2470 C   0  0  0  0  0  0  0  0  0  0  0  0
  -13.4940   -1.0490  -23.0640 C   0  0  0  0  0  0  0  0  0  0  0  0
  -12.6390   -0.2800  -23.8300 C   0  0  0  0  0  0  0  0  0  0  0  0
  -11.6120   -2.2720  -22.1880 C   0  0  0  0  0  0  0  0  0  0  0  0
  -10.7330   -1.4920  -22.9390 C   0  0  0  0  0  0  0  0  0  0  0  0
  -11.2710   -0.5110  -23.7790 C   0  0  0  0  0  0  0  0  0  0  0  0
  -10.5150    0.2140  -24.6690 O   0  0  0  0  0  0  0  0  0  0  0  0
   -9.0800    0.1620  -24.5210 C   0  0  0  0  0  0  0  0  0  0  0  0
   -8.5760   -1.2090  -24.1450 C   0  0  0  0  0  0  0  0  0  0  0  0
   -9.2330   -1.6650  -22.8370 C   0  0  1  0  0  0  0  0  0  0  0  0
   -8.6590   -0.8970  -21.6430 C   0  0  0  0  0  0  0  0  0  0  0  0
   -9.1070    0.1910  -21.2860 O   0  0  0  0  0  0  0  0  0  0  0  0
   -7.5980   -1.4930  -21.0500 N   0  0  0  0  0  0  0  0  0  0  0  0
   -6.7780   -0.9880  -20.0220 C   0  0  0  0  0  0  0  0  0  0  0  0
   -7.0050   -1.1800  -18.6590 C   0  0  0  0  0  0  0  0  0  0  0  0
   -6.2830   -0.6330  -17.6730 N   0  0  0  0  0  0  0  0  0  0  0  0
   -5.2710    0.1480  -18.0180 C   0  0  0  0  0  0  0  0  0  0  0  0
   -5.6800   -0.1490  -20.3930 C   0  0  0  0  0  0  0  0  0  0  0  0
   -4.9080    0.4410  -19.3540 C   0  0  0  0  0  0  0  0  0  0  0  0
   -3.8370    1.3030  -19.6970 C   0  0  0  0  0  0  0  0  0  0  0  0
   -3.5380    1.5610  -21.0040 C   0  0  0  0  0  0  0  0  0  0  0  0
   -5.3390    0.1400  -21.7370 C   0  0  0  0  0  0  0  0  0  0  0  0
   -4.2860    0.9690  -22.0140 C   0  0  0  0  0  0  0  0  0  0  0  0
   -3.8200    1.2100  -23.7030 S   0  0  1  0  0  0  0  0  0  0  0  0
   -2.4700    0.7500  -23.8650 O   0  0  0  0  0  0  0  0  0  0  0  0
   -4.8380    0.6310  -24.5340 O   0  0  0  0  0  0  0  0  0  0  0  0
   -3.8480    2.9510  -23.9160 C   0  0  0  0  0  0  0  0  0  0  0  0
  2  1  1  0
  3  2  2  0
  4  3  1  0
  5  2  1  0
  6  5  2  0
  7  4  2  0
  7  6  1  0
  8  7  1  0
  9  8  1  0
 10  9  1  0
 11 10  1  0
 11  6  1  0
 11 12  1  1
 13 12  2  0
 14 12  1  0
 15 14  1  0
 16 15  2  0
 17 16  1  0
 18 17  2  0
 19 15  1  0
 20 19  2  0
 20 18  1  0
 21 20  1  0
 22 21  2  0
 23 19  1  0
 24 23  2  0
 24 22  1  0
 25 24  1  0
 26 25  2  0
 27 25  2  0
 25 28  1  6
M  END
$$$$

     RDKit          3D

 16 17  0  0  0  0  0  0  0  0999 V2000
   -6.5740   -3.7090  -21.2430 N   0  0  0  0  0  0  0  0  0  0  0  0
   -7.0300   -3.5520  -18.8120 C   0  0  0  0  0  0  0  0  0  0  0  0
   -5.4500   -5.0190  -19.8120 O   0  0  0  0  0  0  0  0  0  0  0  0
   -6.2810   -4.1380  -19.9950 C   0  0  0  0  0  0  0  0  0  0  0  0
   -6.0680   -4.3750  -22.4400 C   0  0  0  0  0  0  0  0  0  0  0  0
   -7.4740   -2.6140  -21.6040 C   0  0  0  0  0  0  0  0  0  0  0  0
   -8.6240   -3.1480  -22.4290 C   0  0  0  0  0  0  0  0  0  0  0  0
   -9.2840   -4.3430  -24.4310 C   0  0  0  0  0  0  0  0  0  0  0  0
   -8.9100   -5.4290  -25.3960 C   0  0  0  0  0  0  0  0  0  0  0  0
   -9.1830   -6.7910  -25.2730 C   0  0  0  0  0  0  0  0  0  0  0  0
   -8.8220   -7.5350  -26.4210 C   0  0  0  0  0  0  0  0  0  0  0  0
   -8.0440   -6.7560  -27.2970 C   0  0  0  0  0  0  0  0  0  0  0  0
   -7.2280   -4.9070  -23.2470 C   0  0  0  0  0  0  0  0  0  0  0  0
   -8.1470   -3.8310  -23.6370 N   0  0  2  0  0  0  0  0  0  0  0  0
   -8.0280   -5.1030  -26.8540 S   0  0  0  0  0  0  0  0  0  0  0  0
   -7.0840   -7.3360  -28.7950 Br  0  0  0  0  0  0  0  0  0  0  0  0
  4  3  2  0
  4  2  1  0
  4  1  1  0
  5  1  1  0
  6  1  1  0
  7  6  1  0
  9  8  1  0
 10  9  2  0
 11 10  1  0
 12 11  2  0
 13  5  1  0
 14 13  1  0
 14  8  1  1
 14  7  1  0
 15 12  1  0
 15  9  1  0
 16 12  1  0
M  CHG  1  14   1
M  END
$$$$

     RDKit          3D

 27 30  0  0  0  0  0  0  0  0999 V2000
  -13.8820   -2.7290  -21.2930 Cl  0  0  0  0  0  0  0  0  0  0  0  0
  -12.7310   -1.9970  -22.3820 C   0  0  0  0  0  0  0  0  0  0  0  0
  -11.3950   -2.3200  -22.2560 C   0  0  0  0  0  0  0  0  0  0  0  0
  -13.1690   -1.0810  -23.3130 C   0  0  0  0  0  0  0  0  0  0  0  0
  -12.2480   -0.4750  -24.1500 C   0  0  0  0  0  0  0  0  0  0  0  0
  -10.8890   -0.7740  -24.0350 C   0  0  0  0  0  0  0  0  0  0  0  0
   -9.9270   -0.1440  -24.8790 N   0  0  0  0  0  0  0  0  0  0  0  0
  -10.3440    0.6240  -25.9170 C   0  0  0  0  0  0  0  0  0  0  0  0
  -10.7030    1.7920  -25.6900 O   0  0  0  0  0  0  0  0  0  0  0  0
  -10.3840    0.0500  -27.1270 N   0  0  0  0  0  0  0  0  0  0  0  0
  -10.4510   -1.6920  -23.0660 C   0  0  0  0  0  0  0  0  0  0  0  0
   -8.9770   -1.9640  -22.8380 C   0  0  1  0  0  0  0  0  0  0  0  0
   -8.1570   -1.6690  -24.0960 C   0  0  0  0  0  0  0  0  0  0  0  0
   -8.4850   -0.2810  -24.6110 C   0  0  0  0  0  0  0  0  0  0  0  0
   -8.4720   -1.1260  -21.6620 C   0  0  0  0  0  0  0  0  0  0  0  0
   -9.0260   -0.0790  -21.3160 O   0  0  0  0  0  0  0  0  0  0  0  0
   -7.3740   -1.6290  -21.0490 N   0  0  0  0  0  0  0  0  0  0  0  0
   -6.6520   -1.0590  -19.9830 C   0  0  0  0  0  0  0  0  0  0  0  0
   -5.5550   -0.1980  -20.2930 C   0  0  0  0  0  0  0  0  0  0  0  0
   -5.0820    0.0360  -21.6100 C   0  0  0  0  0  0  0  0  0  0  0  0
   -4.0370    0.8860  -21.8410 C   0  0  0  0  0  0  0  0  0  0  0  0
   -3.4150    1.5470  -20.7890 C   0  0  0  0  0  0  0  0  0  0  0  0
   -3.8260    1.3480  -19.5040 C   0  0  0  0  0  0  0  0  0  0  0  0
   -4.8970    0.4650  -19.2170 C   0  0  0  0  0  0  0  0  0  0  0  0
   -5.3560    0.2000  -17.9020 C   0  0  0  0  0  0  0  0  0  0  0  0
   -6.3640   -0.6130  -17.6150 N   0  0  0  0  0  0  0  0  0  0  0  0
   -6.9890   -1.2150  -18.6390 C   0  0  0  0  0  0  0  0  0  0  0  0
  2  1  1  0
  3  2  2  0
  4  2  1  0
  5  4  2  0
  6  5  1  0
  7  6  1  0
  8  7  1  0
  9  8  2  0
 10  8  1  0
 11  3  1  0
 11  6  2  0
 12 11  1  0
 13 12  1  0
 14 13  1  0
 14  7  1  0
 12 15  1  1
 16 15  2  0
 17 15  1  0
 18 17  1  0
 19 18  1  0
 20 19  2  0
 21 20  1  0
 22 21  2  0
 23 22  1  0
 24 19  1  0
 24 23  2  0
 25 24  1  0
 26 25  2  0
 27 26  1  0
 27 18  2  0
M  END
$$$$

     RDKit          3D

 20 21  0  0  0  0  0  0  0  0999 V2000
   -9.0290   -0.5440  -21.3820 O   0  0  0  0  0  0  0  0  0  0  0  0
   -8.0880   -0.9670  -22.0450 C   0  0  0  0  0  0  0  0  0  0  0  0
   -6.8020   -0.9150  -21.6390 N   0  0  0  0  0  0  0  0  0  0  0  0
   -6.2640   -0.7580  -20.3390 C   0  0  0  0  0  0  0  0  0  0  0  0
   -7.0010   -1.0180  -19.1830 C   0  0  0  0  0  0  0  0  0  0  0  0
   -6.6400   -0.6120  -17.9610 N   0  0  0  0  0  0  0  0  0  0  0  0
   -5.5020    0.0790  -17.8590 C   0  0  0  0  0  0  0  0  0  0  0  0
   -4.6890    0.3710  -18.9340 C   0  0  0  0  0  0  0  0  0  0  0  0
   -5.0510   -0.0570  -20.2090 C   0  0  0  0  0  0  0  0  0  0  0  0
   -4.1850    0.2670  -21.3970 C   0  0  0  0  0  0  0  0  0  0  0  0
   -8.2740   -1.5040  -23.4490 C   0  0  0  0  0  0  0  0  0  0  0  0
   -9.3380   -2.6230  -23.5960 C   0  0  2  0  0  0  0  0  0  0  0  0
   -9.0550   -3.6900  -22.5270 C   0  0  0  0  0  0  0  0  0  0  0  0
   -9.1610   -3.2900  -24.9650 C   0  0  0  0  0  0  0  0  0  0  0  0
  -10.7440   -2.0210  -23.4820 C   0  0  0  0  0  0  0  0  0  0  0  0
  -11.1090   -0.9320  -24.2700 C   0  0  0  0  0  0  0  0  0  0  0  0
  -12.3560   -0.3440  -24.1320 C   0  0  0  0  0  0  0  0  0  0  0  0
  -13.2620   -0.8420  -23.2180 C   0  0  0  0  0  0  0  0  0  0  0  0
  -12.9250   -1.9320  -22.4460 C   0  0  0  0  0  0  0  0  0  0  0  0
  -11.6750   -2.5160  -22.5700 C   0  0  0  0  0  0  0  0  0  0  0  0
  2  1  2  0
  3  2  1  0
  4  3  1  0
  5  4  2  0
  6  5  1  0
  7  6  2  0
  8  7  1  0
  9  4  1  0
  9  8  2  0
 10  9  1  0
 11  2  1  0
 12 11  1  0
 12 13  1  1
 14 12  1  0
 15 12  1  0
 16 15  2  0
 17 16  1  0
 18 17  2  0
 19 18  1  0
 20 19  2  0
 20 15  1  0
M  END
$$$$

     RDKit          3D

 35 37  0  0  0  0  0  0  0  0999 V2000
   -5.8310    0.4310  -18.4070 C   0  0  0  0  0  0  0  0  0  0  0  0
   -6.9620   -4.0300  -20.1720 C   0  0  0  0  0  0  0  0  0  0  0  0
   -8.4930   -1.6440  -22.1300 C   0  0  0  0  0  0  0  0  0  0  0  0
   -9.5440    1.1450  -22.4680 C   0  0  0  0  0  0  0  0  0  0  0  0
  -11.5700    3.8140  -23.2020 C   0  0  0  0  0  0  0  0  0  0  0  0
   -4.9770   -0.0310  -20.5980 C   0  0  0  0  0  0  0  0  0  0  0  0
   -4.4470    1.2970  -20.0970 C   0  0  0  0  0  0  0  0  0  0  0  0
  -10.5380   -0.1540  -24.4190 C   0  0  0  0  0  0  0  0  0  0  0  0
   -6.1780   -0.3130  -19.6840 C   0  0  1  0  0  0  0  0  0  0  0  0
   -9.9330   -1.2770  -22.3210 C   0  0  2  0  0  0  0  0  0  0  0  0
  -11.0220   -1.5600  -24.4650 C   0  0  1  0  0  0  0  0  0  0  0  0
  -10.6440   -2.2530  -23.2010 C   0  0  2  0  0  0  0  0  0  0  0  0
  -12.1150   -2.1550  -23.5910 C   0  0  1  0  0  0  0  0  0  0  0  0
  -12.9830   -1.2380  -22.7850 C   0  0  0  0  0  0  0  0  0  0  0  0
  -12.7770   -3.3850  -24.0880 C   0  0  0  0  0  0  0  0  0  0  0  0
   -8.2940    4.1590  -24.3980 C   0  0  0  0  0  0  0  0  0  0  0  0
   -7.2700    1.9400  -24.0740 C   0  0  0  0  0  0  0  0  0  0  0  0
   -7.5440    3.5030  -22.1850 C   0  0  0  0  0  0  0  0  0  0  0  0
   -6.3520   -1.7790  -19.3400 C   0  0  0  0  0  0  0  0  0  0  0  0
   -6.8730   -2.5690  -20.5240 C   0  0  2  0  0  0  0  0  0  0  0  0
   -9.5610    2.3980  -23.2990 C   0  0  2  0  0  0  0  0  0  0  0  0
  -12.4300    4.6290  -22.2800 C   0  0  2  0  0  0  0  0  0  0  0  0
   -8.1710    2.9830  -23.4570 C   0  0  1  0  0  0  0  0  0  0  0  0
   -5.8580   -4.6710  -19.9660 N   0  0  0  0  0  0  0  0  0  0  0  0
   -4.7440    1.2570  -18.6840 N   0  0  0  0  0  0  0  0  0  0  0  0
   -9.9170   -0.0250  -23.0880 N   0  0  0  0  0  0  0  0  0  0  0  0
   -8.2260   -2.1810  -20.8870 N   0  0  0  0  0  0  0  0  0  0  0  0
  -10.4660    3.2650  -22.5820 N   0  0  0  0  0  0  0  0  0  0  0  0
   -6.4510    0.3290  -17.3560 O   0  0  0  0  0  0  0  0  0  0  0  0
   -7.6790   -1.4670  -23.0290 O   0  0  0  0  0  0  0  0  0  0  0  0
   -9.1970    1.1750  -21.3000 O   0  0  0  0  0  0  0  0  0  0  0  0
  -11.8400    3.7340  -24.3930 O   0  0  0  0  0  0  0  0  0  0  0  0
  -12.4950    4.2280  -20.9890 F   0  0  0  0  0  0  0  0  0  0  0  0
  -13.7180    4.5660  -22.6900 F   0  0  0  0  0  0  0  0  0  0  0  0
  -12.0150    5.9250  -22.2450 F   0  0  0  0  0  0  0  0  0  0  0  0
  7  6  1  0
  9  1  1  0
  9  6  1  0
 10  3  1  6
 11  8  1  1
 12 11  1  0
 12 10  1  1
 13 11  1  0
 13 12  1  0
 13 14  1  1
 15 13  1  0
  9 19  1  1
 20 19  1  1
 20  2  1  0
 21  4  1  0
 22  5  1  0
 23 21  1  0
 23 18  1  1
 23 17  1  0
 23 16  1  0
 24  2  1  0
 25  1  1  0
 25  7  1  0
 26 10  1  0
 26  8  1  0
 26  4  1  0
 27  3  1  0
 27 20  1  0
 28  5  1  0
 21 28  1  1
 29  1  2  0
 30  3  2  0
 31  4  2  0
 32  5  2  0
 22 33  1  1
 34 22  1  0
 35 22  1  0
M  CHG  1  24   1
M  END
$$$$

     RDKit          3D

 33 35  0  0  0  0  0  0  0  0999 V2000
   -9.0670    0.3030  -21.4310 O   0  0  0  0  0  0  0  0  0  0  0  0
   -7.9980    0.3150  -22.0370 C   0  0  0  0  0  0  0  0  0  0  0  0
   -6.9300   -0.7530  -21.7570 C   0  0  1  0  0  0  0  0  0  0  0  0
   -6.2660   -0.5470  -20.4050 C   0  0  0  0  0  0  0  0  0  0  0  0
   -5.0780    0.1600  -20.3000 C   0  0  0  0  0  0  0  0  0  0  0  0
   -4.5800    0.5050  -19.0570 C   0  0  0  0  0  0  0  0  0  0  0  0
   -5.2930    0.1120  -17.9390 C   0  0  0  0  0  0  0  0  0  0  0  0
   -6.4320   -0.5870  -18.0010 N   0  0  0  0  0  0  0  0  0  0  0  0
   -6.8900   -0.9040  -19.2170 C   0  0  0  0  0  0  0  0  0  0  0  0
   -7.3670   -2.1460  -22.0340 N   0  0  0  0  0  0  0  0  0  0  0  0
   -8.5230   -2.3620  -22.8580 C   0  0  0  0  0  0  0  0  0  0  0  0
   -9.8880   -2.4430  -22.4620 C   0  0  0  0  0  0  0  0  0  0  0  0
  -10.5780   -2.5650  -23.6050 C   0  0  0  0  0  0  0  0  0  0  0  0
  -12.0760   -2.6560  -23.8240 C   0  0  1  0  0  0  0  0  0  0  0  0
  -12.3960   -3.7230  -24.8700 C   0  0  0  0  0  0  0  0  0  0  0  0
  -12.7680   -3.0130  -22.5080 C   0  0  0  0  0  0  0  0  0  0  0  0
  -12.6070   -1.3160  -24.3300 C   0  0  0  0  0  0  0  0  0  0  0  0
   -9.7470   -2.5780  -24.6670 O   0  0  0  0  0  0  0  0  0  0  0  0
   -8.4070   -2.4500  -24.2060 N   0  0  0  0  0  0  0  0  0  0  0  0
   -6.6170   -3.2500  -21.6080 C   0  0  0  0  0  0  0  0  0  0  0  0
   -5.4110   -3.1230  -21.4590 O   0  0  0  0  0  0  0  0  0  0  0  0
   -7.3150   -4.5660  -21.3850 C   0  0  0  0  0  0  0  0  0  0  0  0
   -6.6400   -5.4150  -20.3140 C   0  0  0  0  0  0  0  0  0  0  0  0
   -7.6500    1.2580  -22.9430 N   0  0  0  0  0  0  0  0  0  0  0  0
   -8.4560    2.3260  -23.4020 C   0  0  0  0  0  0  0  0  0  0  0  0
   -8.2220    3.6300  -22.9670 C   0  0  0  0  0  0  0  0  0  0  0  0
   -9.0230    4.6620  -23.4220 C   0  0  0  0  0  0  0  0  0  0  0  0
  -10.0530    4.3960  -24.3100 C   0  0  0  0  0  0  0  0  0  0  0  0
  -10.7640    5.4980  -24.7080 O   0  0  0  0  0  0  0  0  0  0  0  0
  -11.8340    5.3320  -25.6460 C   0  0  0  0  0  0  0  0  0  0  0  0
  -10.2950    3.1010  -24.7420 C   0  0  0  0  0  0  0  0  0  0  0  0
   -9.4960    2.0480  -24.3100 C   0  0  0  0  0  0  0  0  0  0  0  0
   -9.7110    0.6690  -24.8830 C   0  0  0  0  0  0  0  0  0  0  0  0
  2  1  2  0
  3  2  1  0
  4  3  1  0
  5  4  2  0
  6  5  1  0
  7  6  2  0
  8  7  1  0
  9  8  2  0
  9  4  1  0
  3 10  1  1
 11 10  1  0
 12 11  1  0
 13 12  2  0
 14 13  1  0
 14 15  1  6
 16 14  1  0
 17 14  1  0
 18 13  1  0
 19 18  1  0
 19 11  2  0
 20 10  1  0
 21 20  2  0
 22 20  1  0
 23 22  1  0
 24  2  1  0
 25 24  1  0
 26 25  2  0
 27 26  1  0
 28 27  2  0
 29 28  1  0
 30 29  1  0
 31 28  1  0
 32 31  2  0
 32 25  1  0
 33 32  1  0
M  END
$$$$

     RDKit          3D

 17 18  0  0  0  0  0  0  0  0999 V2000
   -6.4220   -3.7330  -21.2830 N   0  0  0  0  0  0  0  0  0  0  0  0
   -6.7740   -3.6880  -18.8520 C   0  0  0  0  0  0  0  0  0  0  0  0
   -5.4040   -5.2640  -19.9550 O   0  0  0  0  0  0  0  0  0  0  0  0
   -6.1390   -4.2910  -20.0800 C   0  0  0  0  0  0  0  0  0  0  0  0
  -11.4340   -3.0240  -23.2090 C   0  0  0  0  0  0  0  0  0  0  0  0
   -8.4190   -2.8030  -22.2800 C   0  0  0  0  0  0  0  0  0  0  0  0
   -7.1520   -2.4940  -21.5170 C   0  0  0  0  0  0  0  0  0  0  0  0
   -6.0480   -4.3470  -22.5580 C   0  0  0  0  0  0  0  0  0  0  0  0
   -7.2880   -4.6350  -23.3730 C   0  0  0  0  0  0  0  0  0  0  0  0
   -9.3190   -3.7740  -24.3220 C   0  0  0  0  0  0  0  0  0  0  0  0
  -10.4520   -2.7920  -24.1570 C   0  0  0  0  0  0  0  0  0  0  0  0
  -10.5370   -1.6510  -24.9360 C   0  0  0  0  0  0  0  0  0  0  0  0
  -11.5830   -0.7600  -24.7660 C   0  0  0  0  0  0  0  0  0  0  0  0
  -12.5640   -0.9980  -23.8240 C   0  0  0  0  0  0  0  0  0  0  0  0
  -12.4710   -2.1320  -23.0500 C   0  0  0  0  0  0  0  0  0  0  0  0
   -8.1080   -3.4360  -23.5650 N   0  0  1  0  0  0  0  0  0  0  0  0
  -13.6830   -2.4730  -21.8490 Cl  0  0  0  0  0  0  0  0  0  0  0  0
  4  2  1  0
  4  1  1  0
  4  3  2  0
  7  6  1  0
  7  1  1  0
  8  1  1  0
  9  8  1  0
 11  5  2  0
 11 10  1  0
 12 11  1  0
 13 12  2  0
 14 13  1  0
 15 14  2  0
 15  5  1  0
 16 10  1  1
 16  9  1  0
 16  6  1  0
 17 15  1  0
M  CHG  1  16   1
M  END
$$$$

     RDKit          3D

 25 28  0  0  0  0  0  0  0  0999 V2000
   -8.9450   -0.1710  -21.4000 O   0  0  0  0  0  0  0  0  0  0  0  0
   -8.4030   -1.2500  -21.6540 C   0  0  0  0  0  0  0  0  0  0  0  0
   -8.9540   -2.1690  -22.7590 C   0  0  1  0  0  0  0  0  0  0  0  0
  -10.3860   -1.7640  -23.0570 C   0  0  0  0  0  0  0  0  0  0  0  0
  -11.4280   -2.3660  -22.3560 C   0  0  0  0  0  0  0  0  0  0  0  0
  -12.7330   -2.0460  -22.6720 C   0  0  0  0  0  0  0  0  0  0  0  0
  -14.0270   -2.7930  -21.7750 Cl  0  0  0  0  0  0  0  0  0  0  0  0
  -13.0340   -1.1420  -23.6710 C   0  0  0  0  0  0  0  0  0  0  0  0
  -12.0000   -0.5520  -24.3730 C   0  0  0  0  0  0  0  0  0  0  0  0
  -10.6690   -0.8540  -24.0880 C   0  0  0  0  0  0  0  0  0  0  0  0
   -9.5730   -0.2530  -24.9410 C   0  0  0  0  0  0  0  0  0  0  0  0
   -8.1800   -0.7190  -24.5500 C   0  0  0  0  0  0  0  0  0  0  0  0
   -8.1790   -2.0840  -24.0100 N   0  0  1  0  0  0  0  0  0  0  0  0
   -6.8280   -2.6460  -23.9520 C   0  0  0  0  0  0  0  0  0  0  0  0
   -7.3290   -1.7220  -20.9790 N   0  0  0  0  0  0  0  0  0  0  0  0
   -6.6240   -1.1000  -19.9320 C   0  0  0  0  0  0  0  0  0  0  0  0
   -5.5560   -0.2040  -20.2570 C   0  0  0  0  0  0  0  0  0  0  0  0
   -5.0930    0.0240  -21.5800 C   0  0  0  0  0  0  0  0  0  0  0  0
   -4.0570    0.8830  -21.8230 C   0  0  0  0  0  0  0  0  0  0  0  0
   -3.4350    1.5560  -20.7780 C   0  0  0  0  0  0  0  0  0  0  0  0
   -3.8490    1.3760  -19.4890 C   0  0  0  0  0  0  0  0  0  0  0  0
   -4.9160    0.4910  -19.1930 C   0  0  0  0  0  0  0  0  0  0  0  0
   -5.3770    0.2470  -17.8760 C   0  0  0  0  0  0  0  0  0  0  0  0
   -6.3610   -0.5880  -17.5740 N   0  0  0  0  0  0  0  0  0  0  0  0
   -6.9530   -1.2380  -18.5830 C   0  0  0  0  0  0  0  0  0  0  0  0
  2  1  2  0
  3  2  1  1
  4  3  1  0
  5  4  2  0
  6  5  1  0
  7  6  1  0
  8  6  2  0
  9  8  1  0
 10  9  2  0
 10  4  1  0
 11 10  1  0
 12 11  1  0
 13 12  1  0
 13  3  1  0
 13 14  1  1
 15  2  1  0
 16 15  1  0
 17 16  1  0
 18 17  2  0
 19 18  1  0
 20 19  2  0
 21 20  1  0
 22 17  1  0
 22 21  2  0
 23 22  1  0
 24 23  2  0
 25 24  1  0
 25 16  2  0
M  CHG  1  13   1
M  END
$$$$

     RDKit          3D

 28 31  0  0  0  0  0  0  0  0999 V2000
   -8.8830    0.2020  -21.4000 O   0  0  0  0  0  0  0  0  0  0  0  0
   -8.5700   -0.8170  -21.9990 C   0  0  0  0  0  0  0  0  0  0  0  0
   -7.8010   -1.9360  -21.2950 C   0  0  0  0  0  0  0  0  0  0  0  0
   -6.9430   -1.4230  -20.2470 N   0  0  0  0  0  0  0  0  0  0  0  0
   -5.8380   -0.6310  -20.3330 C   0  0  0  0  0  0  0  0  0  0  0  0
   -5.0240   -0.2280  -21.3840 C   0  0  0  0  0  0  0  0  0  0  0  0
   -3.9600    0.6150  -21.0860 C   0  0  0  0  0  0  0  0  0  0  0  0
   -3.7200    1.0340  -19.7780 C   0  0  0  0  0  0  0  0  0  0  0  0
   -4.5430    0.6260  -18.7370 C   0  0  0  0  0  0  0  0  0  0  0  0
   -5.6130   -0.2160  -19.0240 C   0  0  0  0  0  0  0  0  0  0  0  0
   -6.5890   -0.7580  -18.2170 N   0  0  0  0  0  0  0  0  0  0  0  0
   -7.3810   -1.4770  -18.9640 N   0  0  0  0  0  0  0  0  0  0  0  0
   -8.8740   -1.0170  -23.3130 N   0  0  0  0  0  0  0  0  0  0  0  0
   -9.2980    0.1270  -24.1120 C   0  0  0  0  0  0  0  0  0  0  0  0
  -10.6320    0.6630  -23.6960 C   0  0  0  0  0  0  0  0  0  0  0  0
  -10.6940    1.9660  -23.2230 N   0  0  0  0  0  0  0  0  0  0  0  0
  -11.9190    2.2570  -22.9200 C   0  0  0  0  0  0  0  0  0  0  0  0
  -13.0630    1.0160  -23.1870 S   0  0  0  0  0  0  0  0  0  0  0  0
  -11.8120    0.0120  -23.7390 C   0  0  0  0  0  0  0  0  0  0  0  0
   -8.6910   -2.2590  -23.9840 C   0  0  0  0  0  0  0  0  0  0  0  0
   -9.4710   -3.3610  -23.6590 C   0  0  0  0  0  0  0  0  0  0  0  0
   -9.3270   -4.5440  -24.3580 C   0  0  0  0  0  0  0  0  0  0  0  0
   -7.7540   -2.3610  -24.9990 C   0  0  0  0  0  0  0  0  0  0  0  0
   -7.6230   -3.5350  -25.7160 C   0  0  0  0  0  0  0  0  0  0  0  0
   -8.4090   -4.6500  -25.4130 C   0  0  0  0  0  0  0  0  0  0  0  0
   -8.2950   -5.8140  -26.1360 N   0  0  0  0  0  0  0  0  0  0  0  0
   -7.0740   -6.1260  -26.8620 C   0  0  0  0  0  0  0  0  0  0  0  0
   -9.1130   -6.9690  -25.8040 C   0  0  0  0  0  0  0  0  0  0  0  0
  2  1  2  0
  3  2  1  0
  4  3  1  0
  5  4  1  0
  6  5  2  0
  7  6  1  0
  8  7  2  0
  9  8  1  0
 10  5  1  0
 10  9  2  0
 11 10  1  0
 12 11  2  0
 12  4  1  0
 13  2  1  0
 14 13  1  0
 15 14  1  0
 16 15  1  0
 17 16  2  0
 18 17  1  0
 19 18  1  0
 19 15  2  0
 20 13  1  0
 21 20  2  0
 22 21  1  0
 23 20  1  0
 24 23  2  0
 25 24  1  0
 25 22  2  0
 26 25  1  0
 27 26  1  0
 28 26  1  0
M  END
$$$$

     RDKit          3D

 19 20  0  0  0  0  0  0  0  0999 V2000
   -7.6740    3.3120  -22.8220 N   0  0  0  0  0  0  0  0  0  0  0  0
   -7.5410    2.1840  -22.7000 C   0  0  0  0  0  0  0  0  0  0  0  0
   -7.4350    0.7230  -22.5430 C   0  0  0  0  0  0  0  0  0  0  0  0
   -6.1330    0.2400  -22.1580 O   0  0  0  0  0  0  0  0  0  0  0  0
   -5.9250   -0.0720  -20.8370 C   0  0  0  0  0  0  0  0  0  0  0  0
   -5.2360    0.7730  -19.9770 C   0  0  0  0  0  0  0  0  0  0  0  0
   -5.2440    0.5100  -18.6160 C   0  0  0  0  0  0  0  0  0  0  0  0
   -5.9420   -0.5690  -18.1190 C   0  0  0  0  0  0  0  0  0  0  0  0
   -6.5840   -1.4430  -18.9790 C   0  0  0  0  0  0  0  0  0  0  0  0
   -6.5440   -1.2350  -20.3600 C   0  0  0  0  0  0  0  0  0  0  0  0
   -6.9880   -2.3950  -21.2010 C   0  0  0  0  0  0  0  0  0  0  0  0
   -6.2300   -3.3400  -21.4040 O   0  0  0  0  0  0  0  0  0  0  0  0
   -8.2190   -2.3430  -21.7180 N   0  0  0  0  0  0  0  0  0  0  0  0
   -8.6270   -3.2420  -22.7750 C   0  0  0  0  0  0  0  0  0  0  0  0
   -9.9960   -2.9410  -23.2840 C   0  0  0  0  0  0  0  0  0  0  0  0
  -10.3690   -2.8350  -24.5930 C   0  0  0  0  0  0  0  0  0  0  0  0
  -12.0260   -2.5500  -24.7030 S   0  0  0  0  0  0  0  0  0  0  0  0
  -12.2630   -2.5600  -23.0480 N   0  0  0  0  0  0  0  0  0  0  0  0
  -11.1050   -2.7710  -22.4370 C   0  0  0  0  0  0  0  0  0  0  0  0
  2  1  3  0
  3  2  1  0
  4  3  1  0
  5  4  1  0
  6  5  2  0
  7  6  1  0
  8  7  2  0
  9  8  1  0
 10  9  2  0
 10  5  1  0
 11 10  1  0
 12 11  2  0
 13 11  1  0
 14 13  1  0
 15 14  1  0
 16 15  2  0
 17 16  1  0
 18 17  1  0
 19 18  2  0
 19 15  1  0
M  END
$$$$

     RDKit          3D

 19 20  0  0  0  0  0  0  0  0999 V2000
   -4.9390   -6.3990  -24.5270 N   0  0  0  0  0  0  0  0  0  0  0  0
   -3.6830   -3.6330  -26.2080 C   0  0  0  0  0  0  0  0  0  0  0  0
   -5.2200   -6.1390  -26.9560 O   0  0  0  0  0  0  0  0  0  0  0  0
   -2.8770   -2.5170  -26.2400 C   0  0  0  0  0  0  0  0  0  0  0  0
   -6.2310   -5.5350  -20.7450 C   0  0  0  0  0  0  0  0  0  0  0  0
   -7.4690   -4.6900  -20.5550 C   0  0  0  0  0  0  0  0  0  0  0  0
   -1.5120   -2.6710  -26.0870 C   0  0  0  0  0  0  0  0  0  0  0  0
   -0.9590   -3.9170  -25.8990 C   0  0  0  0  0  0  0  0  0  0  0  0
   -1.7690   -5.0410  -25.8650 C   0  0  0  0  0  0  0  0  0  0  0  0
   -3.1430   -4.9070  -26.0130 C   0  0  0  0  0  0  0  0  0  0  0  0
   -6.0220   -5.4350  -24.2830 C   0  0  0  0  0  0  0  0  0  0  0  0
   -6.8710   -5.9300  -23.1410 C   0  0  0  0  0  0  0  0  0  0  0  0
   -4.9560   -7.0710  -22.2000 C   0  0  0  0  0  0  0  0  0  0  0  0
   -4.0940   -6.5840  -23.3350 C   0  0  0  0  0  0  0  0  0  0  0  0
   -5.0160   -3.4740  -26.3610 F   0  0  0  0  0  0  0  0  0  0  0  0
   -6.0460   -6.1280  -21.9480 N   0  0  0  0  0  0  0  0  0  0  0  0
   -3.3500   -7.4860  -26.0680 O   0  0  0  0  0  0  0  0  0  0  0  0
   -5.4370   -5.6670  -19.8220 O   0  0  0  0  0  0  0  0  0  0  0  0
   -4.1890   -6.3330  -25.9840 S   0  0  1  0  0  0  0  0  0  0  0  0
  4  2  2  0
  6  5  1  0
  7  4  1  0
  8  7  2  0
  9  8  1  0
 10  9  2  0
 10  2  1  0
 11  1  1  0
 12 11  1  0
 14 13  1  0
 14  1  1  0
 15  2  1  0
 16 12  1  0
 16  5  1  0
 16 13  1  0
 18  5  2  0
 19 17  2  0
 19  3  2  0
 19  1  1  1
 19 10  1  0
M  END
$$$$

     RDKit          3D

 26 28  0  0  0  0  0  0  0  0999 V2000
   -6.2420    0.1450  -16.9740 O   0  0  0  0  0  0  0  0  0  0  0  0
   -5.6270   -0.1240  -18.0100 C   0  0  0  0  0  0  0  0  0  0  0  0
   -5.9950   -1.1650  -18.8980 C   0  0  0  0  0  0  0  0  0  0  0  0
   -4.5860    0.6630  -18.4160 N   0  0  0  0  0  0  0  0  0  0  0  0
   -3.9490    0.5520  -19.6510 C   0  0  0  0  0  0  0  0  0  0  0  0
   -4.3600   -0.4430  -20.5710 C   0  0  0  0  0  0  0  0  0  0  0  0
   -3.7540   -0.4880  -21.8470 C   0  0  0  0  0  0  0  0  0  0  0  0
   -4.2200   -1.4070  -22.9460 C   0  0  0  0  0  0  0  0  0  0  0  0
   -2.7290    0.4130  -22.1350 C   0  0  0  0  0  0  0  0  0  0  0  0
   -2.3130    1.3530  -21.2150 C   0  0  0  0  0  0  0  0  0  0  0  0
   -2.9210    1.4360  -19.9770 C   0  0  0  0  0  0  0  0  0  0  0  0
   -5.4240   -1.3770  -20.1140 C   0  0  0  0  0  0  0  0  0  0  0  0
   -5.8460   -2.6130  -20.8480 C   0  0  0  0  0  0  0  0  0  0  0  0
   -5.2120   -3.6630  -20.7560 O   0  0  0  0  0  0  0  0  0  0  0  0
   -6.9480   -2.5170  -21.5890 N   0  0  0  0  0  0  0  0  0  0  0  0
   -7.3530   -3.5730  -22.5070 C   0  0  0  0  0  0  0  0  0  0  0  0
   -8.8420   -3.6040  -22.6800 C   0  0  0  0  0  0  0  0  0  0  0  0
   -9.2500   -2.2960  -23.1080 O   0  0  0  0  0  0  0  0  0  0  0  0
  -10.5860   -1.9800  -23.1050 C   0  0  0  0  0  0  0  0  0  0  0  0
  -10.8780   -0.6600  -23.4910 C   0  0  0  0  0  0  0  0  0  0  0  0
   -9.7910    0.1020  -23.8190 O   0  0  0  0  0  0  0  0  0  0  0  0
  -10.0210    1.3660  -24.4410 C   0  0  0  0  0  0  0  0  0  0  0  0
  -11.6140   -2.8480  -22.7640 C   0  0  0  0  0  0  0  0  0  0  0  0
  -12.9260   -2.4000  -22.8110 C   0  0  0  0  0  0  0  0  0  0  0  0
  -13.2140   -1.1070  -23.2000 C   0  0  0  0  0  0  0  0  0  0  0  0
  -12.1990   -0.2290  -23.5350 C   0  0  0  0  0  0  0  0  0  0  0  0
  2  1  2  0
  3  2  1  0
  4  2  1  0
  5  4  1  0
  6  5  2  0
  7  6  1  0
  8  7  1  0
  9  7  2  0
 10  9  1  0
 11 10  2  0
 11  5  1  0
 12  3  2  0
 12  6  1  0
 13 12  1  0
 14 13  2  0
 15 13  1  0
 16 15  1  0
 17 16  1  0
 18 17  1  0
 19 18  1  0
 20 19  2  0
 21 20  1  0
 22 21  1  0
 23 19  1  0
 24 23  2  0
 25 24  1  0
 26 25  2  0
 26 20  1  0
M  END
$$$$

     RDKit          3D

 30 34  0  0  0  0  0  0  0  0999 V2000
   -8.3740   -0.0480  -21.6130 O   0  0  0  0  0  0  0  0  0  0  0  0
   -8.1120   -1.2440  -21.5060 C   0  0  0  0  0  0  0  0  0  0  0  0
   -7.4210   -1.7540  -20.4680 N   0  0  0  0  0  0  0  0  0  0  0  0
   -6.4390   -1.1730  -19.6380 C   0  0  0  0  0  0  0  0  0  0  0  0
   -5.4930   -0.2100  -20.1310 C   0  0  0  0  0  0  0  0  0  0  0  0
   -5.1200   -0.0930  -21.4950 C   0  0  0  0  0  0  0  0  0  0  0  0
   -4.1240    0.7590  -21.8840 C   0  0  0  0  0  0  0  0  0  0  0  0
   -3.4510    1.5370  -20.9530 C   0  0  0  0  0  0  0  0  0  0  0  0
   -3.7740    1.4660  -19.6290 C   0  0  0  0  0  0  0  0  0  0  0  0
   -4.7970    0.5900  -19.1820 C   0  0  0  0  0  0  0  0  0  0  0  0
   -5.1010    0.4000  -17.8130 C   0  0  0  0  0  0  0  0  0  0  0  0
   -5.9540   -0.5000  -17.3570 N   0  0  0  0  0  0  0  0  0  0  0  0
   -6.5790   -1.2700  -18.2540 C   0  0  0  0  0  0  0  0  0  0  0  0
   -8.6750   -2.2920  -22.4680 C   0  0  1  0  0  0  0  0  0  0  0  0
  -10.0860   -1.9110  -22.8680 C   0  0  0  0  0  0  0  0  0  0  0  0
  -10.2910   -0.9710  -23.8860 C   0  0  0  0  0  0  0  0  0  0  0  0
  -11.5760   -0.5440  -24.2090 C   0  0  0  0  0  0  0  0  0  0  0  0
  -12.6670   -1.0910  -23.5550 C   0  0  0  0  0  0  0  0  0  0  0  0
  -11.1920   -2.4660  -22.2280 C   0  0  0  0  0  0  0  0  0  0  0  0
  -12.4620   -2.0540  -22.5870 C   0  0  0  0  0  0  0  0  0  0  0  0
  -13.8370   -2.7720  -21.7940 Cl  0  0  0  0  0  0  0  0  0  0  0  0
   -7.8180   -2.4140  -23.7450 C   0  0  0  0  0  0  0  0  0  0  0  0
   -7.8340   -1.1160  -24.5570 C   0  0  0  0  0  0  0  0  0  0  0  0
   -9.1740   -0.5250  -24.6810 N   0  0  0  0  0  0  0  0  0  0  0  0
   -9.2550    0.6820  -25.4850 C   0  0  0  0  0  0  0  0  0  0  0  0
   -9.6160    0.3800  -26.9050 C   0  0  0  0  0  0  0  0  0  0  0  0
  -10.4750   -0.5520  -27.3160 N   0  0  0  0  0  0  0  0  0  0  0  0
  -10.5430   -0.5360  -28.6830 N   0  0  0  0  0  0  0  0  0  0  0  0
   -9.7140    0.4160  -29.0480 C   0  0  0  0  0  0  0  0  0  0  0  0
   -9.0970    1.0350  -28.0080 N   0  0  0  0  0  0  0  0  0  0  0  0
  2  1  2  0
  3  2  1  0
  4  3  1  0
  5  4  1  0
  6  5  2  0
  7  6  1  0
  8  7  2  0
  9  8  1  0
 10  5  1  0
 10  9  2  0
 11 10  1  0
 12 11  2  0
 13 12  1  0
 13  4  2  0
 14  2  1  1
 15 14  1  0
 16 15  1  0
 17 16  2  0
 18 17  1  0
 19 15  2  0
 20 19  1  0
 20 18  2  0
 21 20  1  0
 22 14  1  0
 23 22  1  0
 24 23  1  0
 24 16  1  0
 25 24  1  0
 26 25  1  0
 27 26  2  0
 28 27  1  0
 29 28  2  0
 30 29  1  0
 30 26  1  0
M  END
$$$$

     RDKit          3D

 21 23  0  0  0  0  0  0  0  0999 V2000
  -14.0710   -2.9230  -21.0950 Cl  0  0  0  0  0  0  0  0  0  0  0  0
  -13.0370   -2.0450  -22.1940 C   0  0  0  0  0  0  0  0  0  0  0  0
  -13.5910   -1.1110  -23.0430 C   0  0  0  0  0  0  0  0  0  0  0  0
  -12.7600   -0.3270  -23.8230 C   0  0  0  0  0  0  0  0  0  0  0  0
  -11.6720   -2.2390  -22.1220 C   0  0  0  0  0  0  0  0  0  0  0  0
  -10.8190   -1.4550  -22.8920 C   0  0  0  0  0  0  0  0  0  0  0  0
  -11.3850   -0.5000  -23.7470 C   0  0  0  0  0  0  0  0  0  0  0  0
  -10.6420    0.2810  -24.6020 O   0  0  0  0  0  0  0  0  0  0  0  0
   -9.1930    0.1470  -24.5660 C   0  0  0  0  0  0  0  0  0  0  0  0
   -8.7110   -1.2300  -24.1800 C   0  0  0  0  0  0  0  0  0  0  0  0
   -9.3150   -1.6450  -22.8330 C   0  0  1  0  0  0  0  0  0  0  0  0
   -8.7130   -0.9010  -21.6370 C   0  0  0  0  0  0  0  0  0  0  0  0
   -9.1800    0.1600  -21.2190 O   0  0  0  0  0  0  0  0  0  0  0  0
   -7.6380   -1.5150  -21.0750 N   0  0  0  0  0  0  0  0  0  0  0  0
   -6.8400   -1.0140  -20.0150 C   0  0  0  0  0  0  0  0  0  0  0  0
   -5.6220   -0.3760  -20.3180 C   0  0  0  0  0  0  0  0  0  0  0  0
   -5.1000   -0.2870  -21.7300 C   0  0  0  0  0  0  0  0  0  0  0  0
   -7.2480   -1.0560  -18.6780 C   0  0  0  0  0  0  0  0  0  0  0  0
   -6.5570   -0.5060  -17.6690 N   0  0  0  0  0  0  0  0  0  0  0  0
   -5.4070    0.1030  -17.9760 C   0  0  0  0  0  0  0  0  0  0  0  0
   -4.9100    0.1900  -19.2620 C   0  0  0  0  0  0  0  0  0  0  0  0
  2  1  1  0
  3  2  2  0
  4  3  1  0
  5  2  1  0
  6  5  2  0
  7  4  2  0
  7  6  1  0
  8  7  1  0
  9  8  1  0
 10  9  1  0
 11 10  1  0
 11  6  1  0
 11 12  1  1
 13 12  2  0
 14 12  1  0
 15 14  1  0
 16 15  2  0
 17 16  1  0
 18 15  1  0
 19 18  2  0
 20 19  1  0
 21 16  1  0
 21 20  2  0
M  END
$$$$

     RDKit          3D

 34 38  0  0  0  0  0  0  0  0999 V2000
  -10.5240    2.0380  -24.5850 O   0  0  0  0  0  0  0  0  0  0  0  0
  -10.1520    0.9030  -24.3450 C   0  0  0  0  0  0  0  0  0  0  0  0
   -8.8050    0.5400  -24.4550 N   0  0  0  0  0  0  0  0  0  0  0  0
   -7.6370    1.6830  -24.6810 S   0  0  1  0  0  0  0  0  0  0  0  0
   -6.4050    0.9840  -24.8710 O   0  0  0  0  0  0  0  0  0  0  0  0
   -8.0810    2.5830  -25.6980 O   0  0  0  0  0  0  0  0  0  0  0  0
   -7.5540    2.5770  -23.1400 C   0  0  0  0  0  0  0  0  0  0  0  0
   -6.8110    3.9230  -23.1880 C   0  0  1  0  0  0  0  0  0  0  0  0
   -5.9570    4.4010  -22.0640 C   0  0  0  0  0  0  0  0  0  0  0  0
   -5.3340    3.9780  -23.3730 C   0  0  0  0  0  0  0  0  0  0  0  0
   -7.6310    4.9410  -23.7950 O   0  0  0  0  0  0  0  0  0  0  0  0
   -8.5640    5.6650  -22.9780 C   0  0  0  0  0  0  0  0  0  0  0  0
  -11.0410   -0.1220  -23.7720 C   0  0  0  0  0  0  0  0  0  0  0  0
  -12.4150    0.1250  -23.7300 C   0  0  0  0  0  0  0  0  0  0  0  0
  -13.2710   -0.7590  -23.1000 C   0  0  0  0  0  0  0  0  0  0  0  0
  -12.7490   -1.8870  -22.5100 C   0  0  0  0  0  0  0  0  0  0  0  0
  -13.8270   -3.0000  -21.7100 Cl  0  0  0  0  0  0  0  0  0  0  0  0
  -11.3930   -2.1560  -22.5230 C   0  0  0  0  0  0  0  0  0  0  0  0
  -10.5170   -1.2660  -23.1520 C   0  0  0  0  0  0  0  0  0  0  0  0
   -9.0200   -1.5060  -23.1030 C   0  0  1  0  0  0  0  0  0  0  0  0
   -8.3410   -0.8630  -24.3140 C   0  0  0  0  0  0  0  0  0  0  0  0
   -8.4600   -0.8640  -21.8310 C   0  0  0  0  0  0  0  0  0  0  0  0
   -8.9250    0.1750  -21.3640 O   0  0  0  0  0  0  0  0  0  0  0  0
   -7.3770   -1.4830  -21.3050 N   0  0  0  0  0  0  0  0  0  0  0  0
   -6.6090   -1.0490  -20.2030 C   0  0  0  0  0  0  0  0  0  0  0  0
   -5.5180   -0.1600  -20.4500 C   0  0  0  0  0  0  0  0  0  0  0  0
   -4.9880    0.1020  -21.7400 C   0  0  0  0  0  0  0  0  0  0  0  0
   -3.9470    0.9700  -21.9080 C   0  0  0  0  0  0  0  0  0  0  0  0
   -3.3880    1.6300  -20.8200 C   0  0  0  0  0  0  0  0  0  0  0  0
   -3.8650    1.4140  -19.5580 C   0  0  0  0  0  0  0  0  0  0  0  0
   -4.9280    0.5060  -19.3350 C   0  0  0  0  0  0  0  0  0  0  0  0
   -5.4350    0.2070  -18.0460 C   0  0  0  0  0  0  0  0  0  0  0  0
   -6.4190   -0.6520  -17.8150 N   0  0  0  0  0  0  0  0  0  0  0  0
   -6.9780   -1.2570  -18.8740 C   0  0  0  0  0  0  0  0  0  0  0  0
  2  1  2  0
  3  2  1  0
  4  3  1  0
  5  4  2  0
  6  4  2  0
  4  7  1  1
  8  7  1  1
  9  8  1  0
 10  9  1  0
 10  8  1  0
 11  8  1  0
 12 11  1  0
 13  2  1  0
 14 13  2  0
 15 14  1  0
 16 15  2  0
 17 16  1  0
 18 16  1  0
 19 18  2  0
 19 13  1  0
 20 19  1  0
 21 20  1  0
 21  3  1  0
 20 22  1  1
 23 22  2  0
 24 22  1  0
 25 24  1  0
 26 25  1  0
 27 26  2  0
 28 27  1  0
 29 28  2  0
 30 29  1  0
 31 26  1  0
 31 30  2  0
 32 31  1  0
 33 32  2  0
 34 33  1  0
 34 25  2  0
M  END
$$$$

     RDKit          3D

 30 33  0  0  0  0  0  0  0  0999 V2000
   -8.5110   -0.0630  -21.3320 O   0  0  0  0  0  0  0  0  0  0  0  0
   -8.3870   -1.2660  -21.5510 C   0  0  0  0  0  0  0  0  0  0  0  0
   -7.1810   -2.0470  -21.0640 C   0  0  0  0  0  0  0  0  0  0  0  0
   -6.4350   -1.2510  -20.0140 C   0  0  0  0  0  0  0  0  0  0  0  0
   -5.3700   -0.3880  -20.3810 C   0  0  0  0  0  0  0  0  0  0  0  0
   -4.9400   -0.2070  -21.7210 C   0  0  0  0  0  0  0  0  0  0  0  0
   -3.9240    0.6510  -22.0230 C   0  0  0  0  0  0  0  0  0  0  0  0
   -3.2840    1.3660  -21.0250 C   0  0  0  0  0  0  0  0  0  0  0  0
   -3.6620    1.2300  -19.7210 C   0  0  0  0  0  0  0  0  0  0  0  0
   -4.7150    0.3540  -19.3650 C   0  0  0  0  0  0  0  0  0  0  0  0
   -5.1740    0.1870  -18.0380 C   0  0  0  0  0  0  0  0  0  0  0  0
   -6.1750   -0.6130  -17.6990 N   0  0  0  0  0  0  0  0  0  0  0  0
   -6.7710   -1.3090  -18.6750 C   0  0  0  0  0  0  0  0  0  0  0  0
   -9.2850   -2.0030  -22.2340 N   0  0  0  0  0  0  0  0  0  0  0  0
  -10.4680   -1.5510  -22.8630 C   0  0  0  0  0  0  0  0  0  0  0  0
  -11.5560   -2.4080  -22.9790 C   0  0  0  0  0  0  0  0  0  0  0  0
  -12.7010   -1.9490  -23.6020 C   0  0  0  0  0  0  0  0  0  0  0  0
  -14.0160   -3.0550  -23.8610 Cl  0  0  0  0  0  0  0  0  0  0  0  0
  -12.8090   -0.6620  -24.0860 C   0  0  0  0  0  0  0  0  0  0  0  0
  -10.5450   -0.2530  -23.3570 C   0  0  0  0  0  0  0  0  0  0  0  0
  -11.7130    0.1780  -23.9610 C   0  0  0  0  0  0  0  0  0  0  0  0
  -11.7200    1.4510  -24.5250 O   0  0  0  0  0  0  0  0  0  0  0  0
  -12.3900    2.4920  -23.9520 C   0  0  0  0  0  0  0  0  0  0  0  0
  -12.9750    2.2780  -22.7030 C   0  0  0  0  0  0  0  0  0  0  0  0
  -13.6710    3.3360  -22.1420 C   0  0  0  0  0  0  0  0  0  0  0  0
  -13.7540    4.5440  -22.8110 C   0  0  0  0  0  0  0  0  0  0  0  0
  -12.4500    3.6340  -24.6290 N   0  0  0  0  0  0  0  0  0  0  0  0
  -13.1170    4.6340  -24.0540 C   0  0  0  0  0  0  0  0  0  0  0  0
  -13.2140    5.8320  -24.6720 O   0  0  0  0  0  0  0  0  0  0  0  0
  -12.5950    5.9840  -25.9600 C   0  0  0  0  0  0  0  0  0  0  0  0
  2  1  2  0
  3  2  1  0
  4  3  1  0
  5  4  1  0
  6  5  2  0
  7  6  1  0
  8  7  2  0
  9  8  1  0
 10  9  2  0
 10  5  1  0
 11 10  1  0
 12 11  2  0
 13 12  1  0
 13  4  2  0
 14  2  1  0
 15 14  1  0
 16 15  2  0
 17 16  1  0
 18 17  1  0
 19 17  2  0
 20 15  1  0
 21 19  1  0
 21 20  2  0
 22 21  1  0
 23 22  1  0
 24 23  2  0
 25 24  1  0
 26 25  2  0
 27 23  1  0
 28 27  2  0
 28 26  1  0
 29 28  1  0
 30 29  1  0
M  END
$$$$

     RDKit          3D

 19 21  0  0  0  0  0  0  0  0999 V2000
  -10.7000   -0.5270  -23.5910 C   0  0  0  0  0  0  0  0  0  0  0  0
  -11.3370   -3.2730  -23.0200 C   0  0  0  0  0  0  0  0  0  0  0  0
   -8.9870   -0.9970  -21.8730 C   0  0  0  0  0  0  0  0  0  0  0  0
   -8.0460   -1.9770  -21.1920 C   0  0  0  0  0  0  0  0  0  0  0  0
   -5.2820   -0.3300  -21.4410 C   0  0  0  0  0  0  0  0  0  0  0  0
   -5.7400   -0.2460  -19.0490 C   0  0  0  0  0  0  0  0  0  0  0  0
   -4.5810    0.5050  -18.8080 C   0  0  0  0  0  0  0  0  0  0  0  0
   -3.8140    0.8170  -19.8940 C   0  0  0  0  0  0  0  0  0  0  0  0
   -4.1560    0.4110  -21.1870 C   0  0  0  0  0  0  0  0  0  0  0  0
   -6.0600   -0.6590  -20.3280 C   0  0  0  0  0  0  0  0  0  0  0  0
   -9.9130   -2.8210  -23.2460 C   0  0  0  0  0  0  0  0  0  0  0  0
   -9.8070   -1.4190  -22.8470 N   0  0  0  0  0  0  0  0  0  0  0  0
   -7.2450   -1.3140  -20.1830 N   0  0  0  0  0  0  0  0  0  0  0  0
  -12.1470   -0.9610  -23.4400 C   0  0  0  0  0  0  0  0  0  0  0  0
   -7.5950   -1.3730  -18.8670 N   0  0  0  0  0  0  0  0  0  0  0  0
  -13.1030   -2.8880  -24.7350 C   0  0  0  0  0  0  0  0  0  0  0  0
  -12.2930   -2.4140  -23.7930 C   0  0  0  0  0  0  0  0  0  0  0  0
   -6.7160   -0.6950  -18.1850 N   0  0  0  0  0  0  0  0  0  0  0  0
   -8.9430    0.1790  -21.5540 O   0  0  0  0  0  0  0  0  0  0  0  0
  4  3  1  0
  7  6  1  0
  8  7  2  0
  9  8  1  0
  9  5  2  0
 10  6  2  0
 10  5  1  0
 11  2  1  0
 12 11  1  0
 12  3  1  0
 12  1  1  0
 13 10  1  0
 13  4  1  0
 14  1  1  0
 15 13  1  0
 17 16  2  0
 17 14  1  0
 17  2  1  0
 18 15  2  0
 18  6  1  0
 19  3  2  0
M  END
$$$$

     RDKit          3D

 20 22  0  0  0  0  0  0  0  0999 V2000
   -9.0090   -0.0570  -21.5350 O   0  0  0  0  0  0  0  0  0  0  0  0
   -8.5680   -1.1390  -21.9230 C   0  0  0  0  0  0  0  0  0  0  0  0
   -9.1210   -1.8460  -23.1460 C   0  0  0  0  0  0  0  0  0  0  0  0
  -10.6070   -1.6080  -23.3160 C   0  0  0  0  0  0  0  0  0  0  0  0
  -11.0770   -0.6530  -24.2100 C   0  0  0  0  0  0  0  0  0  0  0  0
  -12.4200   -0.3180  -24.2510 C   0  0  0  0  0  0  0  0  0  0  0  0
  -13.3210   -0.9380  -23.3980 C   0  0  0  0  0  0  0  0  0  0  0  0
  -11.5190   -2.2630  -22.4930 C   0  0  0  0  0  0  0  0  0  0  0  0
  -12.8560   -1.9190  -22.5440 C   0  0  0  0  0  0  0  0  0  0  0  0
  -13.9870   -2.7650  -21.5220 Cl  0  0  0  0  0  0  0  0  0  0  0  0
   -7.5260   -1.7740  -21.3100 N   0  0  0  0  0  0  0  0  0  0  0  0
   -6.9180   -1.3010  -20.1450 C   0  0  0  0  0  0  0  0  0  0  0  0
   -5.8060   -0.4800  -20.1760 N   0  0  0  0  0  0  0  0  0  0  0  0
   -5.5390   -0.1430  -18.8480 C   0  0  0  0  0  0  0  0  0  0  0  0
   -6.4150   -0.7220  -18.0230 N   0  0  0  0  0  0  0  0  0  0  0  0
   -7.2600   -1.4340  -18.8380 C   0  0  0  0  0  0  0  0  0  0  0  0
   -5.0510    0.0150  -21.2240 C   0  0  0  0  0  0  0  0  0  0  0  0
   -4.0350    0.8670  -20.9670 C   0  0  0  0  0  0  0  0  0  0  0  0
   -3.7400    1.2430  -19.6310 C   0  0  0  0  0  0  0  0  0  0  0  0
   -4.4640    0.7440  -18.5870 C   0  0  0  0  0  0  0  0  0  0  0  0
  2  1  2  0
  3  2  1  0
  4  3  1  0
  5  4  2  0
  6  5  1  0
  7  6  2  0
  8  4  1  0
  9  8  2  0
  9  7  1  0
 10  9  1  0
 11  2  1  0
 12 11  1  0
 13 12  1  0
 14 13  1  0
 15 14  2  0
 16 15  1  0
 16 12  2  0
 17 13  1  0
 18 17  2  0
 19 18  1  0
 20 14  1  0
 20 19  2  0
M  CHG  1  15   1
M  END
$$$$

     RDKit          3D

 26 29  0  0  0  0  0  0  0  0999 V2000
   -9.0410    0.3450  -21.4730 O   0  0  0  0  0  0  0  0  0  0  0  0
   -8.7610   -0.8130  -21.7580 C   0  0  0  0  0  0  0  0  0  0  0  0
   -9.3190   -1.5240  -23.0250 C   0  0  1  0  0  0  0  0  0  0  0  0
  -10.8260   -1.3970  -23.0840 C   0  0  0  0  0  0  0  0  0  0  0  0
  -11.6360   -1.9890  -22.1200 C   0  0  0  0  0  0  0  0  0  0  0  0
  -13.0080   -1.8650  -22.2210 C   0  0  0  0  0  0  0  0  0  0  0  0
  -14.0170   -2.7920  -21.1470 Cl  0  0  0  0  0  0  0  0  0  0  0  0
  -13.5990   -1.1050  -23.2060 C   0  0  0  0  0  0  0  0  0  0  0  0
  -12.8040   -0.4890  -24.1540 C   0  0  0  0  0  0  0  0  0  0  0  0
  -11.4320   -0.6580  -24.1020 C   0  0  0  0  0  0  0  0  0  0  0  0
  -10.7240   -0.0830  -25.1270 O   0  0  0  0  0  0  0  0  0  0  0  0
   -9.3750    0.2750  -24.7850 C   0  0  0  0  0  0  0  0  0  0  0  0
   -8.6120   -0.9170  -24.2470 C   0  0  0  0  0  0  0  0  0  0  0  0
   -8.7900   -2.8570  -22.9360 O   0  0  0  0  0  0  0  0  0  0  0  0
   -9.5530   -3.9120  -23.5270 C   0  0  0  0  0  0  0  0  0  0  0  0
   -7.9140   -1.5540  -21.0180 N   0  0  0  0  0  0  0  0  0  0  0  0
   -7.0160   -1.0820  -20.0450 C   0  0  0  0  0  0  0  0  0  0  0  0
   -5.8010   -0.4740  -20.4930 C   0  0  0  0  0  0  0  0  0  0  0  0
   -5.4260   -0.3710  -21.8590 C   0  0  0  0  0  0  0  0  0  0  0  0
   -4.2800    0.2770  -22.2260 C   0  0  0  0  0  0  0  0  0  0  0  0
   -3.4560    0.8510  -21.2690 C   0  0  0  0  0  0  0  0  0  0  0  0
   -3.7690    0.7760  -19.9430 C   0  0  0  0  0  0  0  0  0  0  0  0
   -4.9450    0.1080  -19.5180 C   0  0  0  0  0  0  0  0  0  0  0  0
   -5.3440    0.0270  -18.1640 C   0  0  0  0  0  0  0  0  0  0  0  0
   -6.4660   -0.5520  -17.7510 N   0  0  0  0  0  0  0  0  0  0  0  0
   -7.2690   -1.0900  -18.6780 C   0  0  0  0  0  0  0  0  0  0  0  0
  2  1  2  0
  3  2  1  0
  4  3  1  0
  5  4  2  0
  6  5  1  0
  7  6  1  0
  8  6  2  0
  9  8  1  0
 10  9  2  0
 10  4  1  0
 11 10  1  0
 12 11  1  0
 13 12  1  0
 13  3  1  0
  3 14  1  1
 15 14  1  0
 16  2  1  0
 17 16  1  0
 18 17  1  0
 19 18  2  0
 20 19  1  0
 21 20  2  0
 22 21  1  0
 23 18  1  0
 23 22  2  0
 24 23  1  0
 25 24  2  0
 26 25  1  0
 26 17  2  0
M  END
$$$$

     RDKit          3D

 17 18  0  0  0  0  0  0  0  0999 V2000
   -5.2630   -4.8150  -23.9420 N   0  0  0  0  0  0  0  0  0  0  0  0
   -0.9960   -3.4480  -28.4620 C   0  0  0  0  0  0  0  0  0  0  0  0
   -2.4200   -3.3660  -28.4880 O   0  0  0  0  0  0  0  0  0  0  0  0
   -3.1080   -3.7360  -27.3620 C   0  0  0  0  0  0  0  0  0  0  0  0
   -6.2200   -3.8700  -23.3350 C   0  0  0  0  0  0  0  0  0  0  0  0
   -6.1000   -5.2770  -20.1760 C   0  0  0  0  0  0  0  0  0  0  0  0
   -6.7000   -4.1330  -19.3960 C   0  0  0  0  0  0  0  0  0  0  0  0
   -2.5890   -4.6600  -26.4680 C   0  0  0  0  0  0  0  0  0  0  0  0
   -3.3070   -5.0110  -25.3410 C   0  0  0  0  0  0  0  0  0  0  0  0
   -4.5650   -4.4610  -25.0850 C   0  0  0  0  0  0  0  0  0  0  0  0
   -5.0700   -3.5270  -25.9930 C   0  0  0  0  0  0  0  0  0  0  0  0
   -4.3540   -3.1710  -27.1220 C   0  0  0  0  0  0  0  0  0  0  0  0
   -4.9560   -6.0960  -23.2780 C   0  0  0  0  0  0  0  0  0  0  0  0
   -5.9960   -6.5540  -22.2790 C   0  0  0  0  0  0  0  0  0  0  0  0
   -7.1620   -4.4880  -22.3280 C   0  0  0  0  0  0  0  0  0  0  0  0
   -6.4310   -5.4180  -21.4800 N   0  0  0  0  0  0  0  0  0  0  0  0
   -5.3340   -6.0490  -19.6140 O   0  0  0  0  0  0  0  0  0  0  0  0
  3  2  1  0
  4  3  1  0
  5  1  1  0
  7  6  1  0
  8  4  2  0
  9  8  1  0
 10  9  2  0
 10  1  1  0
 11 10  1  0
 12  4  1  0
 12 11  2  0
 13  1  1  0
 14 13  1  0
 15  5  1  0
 16 14  1  0
 16 15  1  0
 16  6  1  0
 17  6  2  0
M  END
$$$$

     RDKit          3D

 22 25  0  0  0  0  0  0  0  0999 V2000
   -5.4470   -0.3280  -19.5550 N   0  0  0  0  0  0  0  0  0  0  0  0
   -6.9710   -1.6400  -20.8760 N   0  0  0  0  0  0  0  0  0  0  0  0
   -6.5010   -0.3400  -17.6230 N   0  0  0  0  0  0  0  0  0  0  0  0
   -5.0260    0.9920  -21.6700 C   0  0  0  0  0  0  0  0  0  0  0  0
  -12.4570   -1.1710  -23.7430 C   0  0  0  0  0  0  0  0  0  0  0  0
   -8.6440   -0.1740  -21.2810 O   0  0  0  0  0  0  0  0  0  0  0  0
   -6.6040   -1.0460  -19.6840 C   0  0  0  0  0  0  0  0  0  0  0  0
  -11.4790   -0.5450  -24.4960 C   0  0  0  0  0  0  0  0  0  0  0  0
   -8.2840   -1.9230  -22.9150 C   0  0  2  0  0  0  0  0  0  0  0  0
   -7.3610   -1.3750  -24.0200 C   0  0  0  0  0  0  0  0  0  0  0  0
   -7.8820   -0.0450  -24.5070 C   0  0  0  0  0  0  0  0  0  0  0  0
   -4.5220    0.0450  -20.6410 C   0  0  1  0  0  0  0  0  0  0  0  0
   -9.7540   -1.6980  -23.2260 C   0  0  0  0  0  0  0  0  0  0  0  0
   -5.4370    0.0720  -18.2480 C   0  0  0  0  0  0  0  0  0  0  0  0
   -4.0030    1.4380  -20.6780 C   0  0  0  0  0  0  0  0  0  0  0  0
  -10.7570   -2.3300  -22.4910 C   0  0  0  0  0  0  0  0  0  0  0  0
  -12.0840   -2.0600  -22.7610 C   0  0  0  0  0  0  0  0  0  0  0  0
   -7.2640   -1.0520  -18.5400 N   0  0  0  0  0  0  0  0  0  0  0  0
   -9.2320   -0.1460  -25.0290 O   0  0  0  0  0  0  0  0  0  0  0  0
   -8.0030   -1.1640  -21.6180 C   0  0  0  0  0  0  0  0  0  0  0  0
  -10.1390   -0.8080  -24.2360 C   0  0  0  0  0  0  0  0  0  0  0  0
  -13.3130   -2.9180  -21.8790 Cl  0  0  0  0  0  0  0  0  0  0  0  0
  7  2  1  0
  7  1  1  0
  8  5  2  0
 10  9  1  0
 11 10  1  0
 12  4  1  0
 12  1  1  1
 13  9  1  0
 14  3  2  0
 14  1  1  0
 15 12  1  0
 15  4  1  0
 16 13  1  0
 17  5  1  0
 17 16  2  0
 18  7  2  0
 18  3  1  0
 19 11  1  0
  9 20  1  1
 20  6  2  0
 20  2  1  0
 21  8  1  0
 21 19  1  0
 21 13  2  0
 22 17  1  0
M  END
$$$$

     RDKit          3D

 32 36  0  0  0  0  0  0  0  0999 V2000
   -7.2370    1.2880  -25.9560 O   0  0  0  0  0  0  0  0  0  0  0  0
   -6.7460   -0.0010  -25.5730 S   0  0  2  0  0  0  0  0  0  0  0  0
   -5.5550   -0.1090  -24.7880 O   0  0  0  0  0  0  0  0  0  0  0  0
   -6.6210   -0.9440  -26.9780 C   0  0  0  0  0  0  0  0  0  0  0  0
   -5.9220   -2.0870  -27.1450 N   0  0  0  0  0  0  0  0  0  0  0  0
   -6.1500   -2.5300  -28.4160 C   0  0  0  0  0  0  0  0  0  0  0  0
   -6.9840   -1.6230  -28.9820 C   0  0  0  0  0  0  0  0  0  0  0  0
   -7.2750   -0.6250  -28.0790 N   0  0  0  0  0  0  0  0  0  0  0  0
   -7.9550   -0.6900  -24.7220 N   0  0  0  0  0  0  0  0  0  0  0  0
   -9.3190   -0.4170  -25.1970 C   0  0  0  0  0  0  0  0  0  0  0  0
   -7.7420   -2.0450  -24.1840 C   0  0  0  0  0  0  0  0  0  0  0  0
   -8.5860   -2.1840  -22.9150 C   0  0  2  0  0  0  0  0  0  0  0  0
  -10.0370   -1.8540  -23.2100 C   0  0  0  0  0  0  0  0  0  0  0  0
  -10.3630   -0.9700  -24.2530 C   0  0  0  0  0  0  0  0  0  0  0  0
  -11.7030   -0.6520  -24.4780 C   0  0  0  0  0  0  0  0  0  0  0  0
  -12.7090   -1.2170  -23.7150 C   0  0  0  0  0  0  0  0  0  0  0  0
  -11.0560   -2.4220  -22.4500 C   0  0  0  0  0  0  0  0  0  0  0  0
  -12.3720   -2.1010  -22.7160 C   0  0  0  0  0  0  0  0  0  0  0  0
  -13.6330   -2.8430  -21.7720 Cl  0  0  0  0  0  0  0  0  0  0  0  0
   -8.0900   -1.2260  -21.8310 C   0  0  0  0  0  0  0  0  0  0  0  0
   -8.3350   -0.0220  -21.8610 O   0  0  0  0  0  0  0  0  0  0  0  0
   -7.3570   -1.8080  -20.8610 N   0  0  0  0  0  0  0  0  0  0  0  0
   -6.4670   -1.2700  -19.9070 C   0  0  0  0  0  0  0  0  0  0  0  0
   -5.5090   -0.2570  -20.2540 C   0  0  0  0  0  0  0  0  0  0  0  0
   -5.0140   -0.0610  -21.5680 C   0  0  0  0  0  0  0  0  0  0  0  0
   -3.9860    0.8060  -21.8150 C   0  0  0  0  0  0  0  0  0  0  0  0
   -3.4060    1.5290  -20.7810 C   0  0  0  0  0  0  0  0  0  0  0  0
   -3.8530    1.3850  -19.4980 C   0  0  0  0  0  0  0  0  0  0  0  0
   -4.9050    0.4850  -19.1970 C   0  0  0  0  0  0  0  0  0  0  0  0
   -5.3020    0.1920  -17.8720 C   0  0  0  0  0  0  0  0  0  0  0  0
   -6.1650   -0.7530  -17.5470 N   0  0  0  0  0  0  0  0  0  0  0  0
   -6.7100   -1.4620  -18.5450 C   0  0  0  0  0  0  0  0  0  0  0  0
  2  1  2  0
  3  2  2  0
  4  2  1  0
  5  4  2  0
  6  5  1  0
  7  6  2  0
  8  7  1  0
  8  4  1  0
  2  9  1  1
 10  9  1  0
 11  9  1  0
 12 11  1  0
 13 12  1  0
 14 13  2  0
 14 10  1  0
 15 14  1  0
 16 15  2  0
 17 13  1  0
 18 17  2  0
 18 16  1  0
 19 18  1  0
 12 20  1  1
 21 20  2  0
 22 20  1  0
 23 22  1  0
 24 23  1  0
 25 24  2  0
 26 25  1  0
 27 26  2  0
 28 27  1  0
 29 24  1  0
 29 28  2  0
 30 29  1  0
 31 30  2  0
 32 31  1  0
 32 23  2  0
M  END
$$$$

     RDKit          3D

 15 16  0  0  0  0  0  0  0  0999 V2000
   -6.6260   -3.6750  -21.1070 N   0  0  0  0  0  0  0  0  0  0  0  0
   -6.9270   -3.6150  -18.6630 C   0  0  0  0  0  0  0  0  0  0  0  0
   -5.5750   -5.1950  -19.8370 O   0  0  0  0  0  0  0  0  0  0  0  0
   -6.3030   -4.2070  -19.9130 C   0  0  0  0  0  0  0  0  0  0  0  0
   -6.3270   -4.3370  -22.3690 C   0  0  0  0  0  0  0  0  0  0  0  0
   -7.3760   -2.4440  -21.3390 C   0  0  0  0  0  0  0  0  0  0  0  0
   -8.6740   -2.7930  -22.0240 C   0  0  0  0  0  0  0  0  0  0  0  0
   -9.7280   -3.8930  -23.8850 C   0  0  0  0  0  0  0  0  0  0  0  0
  -10.7270   -2.7850  -23.9540 C   0  0  0  0  0  0  0  0  0  0  0  0
  -11.8360   -2.5610  -23.1300 C   0  0  0  0  0  0  0  0  0  0  0  0
  -12.5530   -1.4070  -23.5360 C   0  0  0  0  0  0  0  0  0  0  0  0
  -11.8840   -0.6810  -24.4570 C   0  0  0  0  0  0  0  0  0  0  0  0
   -7.6240   -4.6840  -23.0580 C   0  0  0  0  0  0  0  0  0  0  0  0
   -8.4430   -3.4890  -23.2920 N   0  0  2  0  0  0  0  0  0  0  0  0
  -10.6160   -1.5680  -25.1600 S   0  0  0  0  0  0  0  0  0  0  0  0
  4  3  2  0
  4  2  1  0
  4  1  1  0
  5  1  1  0
  6  1  1  0
  7  6  1  0
  9  8  1  0
 10  9  1  0
 11 10  1  0
 12 11  1  0
 13  5  1  0
 14 13  1  0
 14  8  1  1
 14  7  1  0
 15 12  1  0
 15  9  1  0
M  CHG  1  14   1
M  END
$$$$

     RDKit          3D

 21 23  0  0  0  0  0  0  0  0999 V2000
   -8.9860   -0.3620  -21.3810 O   0  0  0  0  0  0  0  0  0  0  0  0
   -8.4740   -1.4260  -21.7260 C   0  0  0  0  0  0  0  0  0  0  0  0
   -7.0310   -1.7560  -21.3970 C   0  0  0  0  0  0  0  0  0  0  0  0
   -6.4190   -1.0030  -20.2340 C   0  0  0  0  0  0  0  0  0  0  0  0
   -6.9140   -1.1510  -18.9500 C   0  0  0  0  0  0  0  0  0  0  0  0
   -6.3860   -0.5750  -17.8640 N   0  0  0  0  0  0  0  0  0  0  0  0
   -5.3010    0.1840  -18.0460 C   0  0  0  0  0  0  0  0  0  0  0  0
   -4.7360    0.4110  -19.2840 C   0  0  0  0  0  0  0  0  0  0  0  0
   -5.2980   -0.1770  -20.4110 C   0  0  0  0  0  0  0  0  0  0  0  0
   -4.7260    0.1230  -21.7720 C   0  0  0  0  0  0  0  0  0  0  0  0
   -9.1180   -2.3830  -22.4450 N   0  0  0  0  0  0  0  0  0  0  0  0
  -10.4580   -2.4570  -22.9230 C   0  0  0  0  0  0  0  0  0  0  0  0
  -10.7240   -3.1360  -24.1360 C   0  0  0  0  0  0  0  0  0  0  0  0
   -9.5950   -3.7130  -24.9540 C   0  0  0  0  0  0  0  0  0  0  0  0
  -10.0080   -4.1240  -26.2990 N   0  0  0  0  0  0  0  0  0  0  0  0
  -11.2790   -4.8780  -26.2730 C   0  0  0  0  0  0  0  0  0  0  0  0
  -12.4170   -3.9930  -25.8260 C   0  0  0  0  0  0  0  0  0  0  0  0
  -12.0590   -3.2610  -24.5560 C   0  0  0  0  0  0  0  0  0  0  0  0
  -13.0790   -2.7040  -23.7880 C   0  0  0  0  0  0  0  0  0  0  0  0
  -12.7980   -2.0340  -22.6120 C   0  0  0  0  0  0  0  0  0  0  0  0
  -11.4950   -1.9120  -22.1720 C   0  0  0  0  0  0  0  0  0  0  0  0
  2  1  2  0
  3  2  1  0
  4  3  1  0
  5  4  2  0
  6  5  1  0
  7  6  2  0
  8  7  1  0
  9  4  1  0
  9  8  2  0
 10  9  1  0
 11  2  1  0
 12 11  1  0
 13 12  1  0
 14 13  1  0
 15 14  1  0
 16 15  1  0
 17 16  1  0
 18 17  1  0
 18 13  2  0
 19 18  1  0
 20 19  2  0
 21 20  1  0
 21 12  2  0
M  CHG  1  15   1
M  END
$$$$

     RDKit          3D

 16 17  0  0  0  0  0  0  0  0999 V2000
   -8.9080    5.0340  -23.0120 C   0  0  0  0  0  0  0  0  0  0  0  0
  -10.1650    4.6880  -23.8030 C   0  0  0  0  0  0  0  0  0  0  0  0
  -12.5310    3.7560  -23.8020 C   0  0  0  0  0  0  0  0  0  0  0  0
  -12.8770    2.3220  -23.3920 C   0  0  0  0  0  0  0  0  0  0  0  0
  -11.8500    1.2620  -23.8210 C   0  0  0  0  0  0  0  0  0  0  0  0
  -10.7160    1.4620  -24.5910 C   0  0  0  0  0  0  0  0  0  0  0  0
  -10.7680   -0.6860  -24.0740 C   0  0  0  0  0  0  0  0  0  0  0  0
  -10.5020   -2.0730  -23.9290 C   0  0  0  0  0  0  0  0  0  0  0  0
  -11.3760   -2.8680  -23.1920 C   0  0  0  0  0  0  0  0  0  0  0  0
  -12.5090   -2.2990  -22.6000 C   0  0  0  0  0  0  0  0  0  0  0  0
  -12.7670   -0.9380  -22.7500 C   0  0  0  0  0  0  0  0  0  0  0  0
  -11.8790   -0.1190  -23.4990 C   0  0  0  0  0  0  0  0  0  0  0  0
  -13.3690   -3.0700  -21.8770 F   0  0  0  0  0  0  0  0  0  0  0  0
  -11.3140    4.1320  -23.1090 N   0  0  0  0  0  0  0  0  0  0  0  0
  -10.0890    0.3010  -24.7280 N   0  0  0  0  0  0  0  0  0  0  0  0
  -10.1870    4.8630  -24.9690 O   0  0  0  0  0  0  0  0  0  0  0  0
  2  1  1  0
  4  3  1  0
  5  4  1  0
  6  5  2  0
  8  7  2  0
  9  8  1  0
 10  9  2  0
 11 10  1  0
 12 11  2  0
 12  5  1  0
 12  7  1  0
 13 10  1  0
 14  3  1  0
 14  2  1  0
 15  7  1  0
 15  6  1  0
 16  2  2  0
M  END
$$$$

     RDKit          3D

 21 23  0  0  0  0  0  0  0  0999 V2000
   -8.8490   -0.3210  -21.3050 O   0  0  0  0  0  0  0  0  0  0  0  0
   -8.3220   -1.3850  -21.6110 C   0  0  0  0  0  0  0  0  0  0  0  0
   -8.7920   -2.1970  -22.8040 C   0  0  0  0  0  0  0  0  0  0  0  0
  -10.2540   -1.9660  -23.1140 C   0  0  0  0  0  0  0  0  0  0  0  0
  -10.6420   -1.0930  -24.1220 C   0  0  0  0  0  0  0  0  0  0  0  0
  -11.9750   -0.7590  -24.2980 C   0  0  0  0  0  0  0  0  0  0  0  0
  -12.9470   -1.3040  -23.4720 C   0  0  0  0  0  0  0  0  0  0  0  0
  -11.2350   -2.5470  -22.3190 C   0  0  0  0  0  0  0  0  0  0  0  0
  -12.5580   -2.2030  -22.5020 C   0  0  0  0  0  0  0  0  0  0  0  0
  -13.7610   -2.8970  -21.4490 Cl  0  0  0  0  0  0  0  0  0  0  0  0
   -7.2560   -1.8960  -20.9600 N   0  0  0  0  0  0  0  0  0  0  0  0
   -6.4980   -1.1920  -19.9980 C   0  0  0  0  0  0  0  0  0  0  0  0
   -5.4470   -0.3350  -20.3640 C   0  0  0  0  0  0  0  0  0  0  0  0
   -4.9830   -0.2610  -21.8030 C   0  0  0  0  0  0  0  0  0  0  0  0
   -4.0670    0.9220  -22.1010 C   0  0  0  0  0  0  0  0  0  0  0  0
   -3.0650    1.1550  -20.9870 C   0  0  0  0  0  0  0  0  0  0  0  0
   -3.7820    1.4570  -19.6910 C   0  0  0  0  0  0  0  0  0  0  0  0
   -4.8310    0.4220  -19.3590 C   0  0  0  0  0  0  0  0  0  0  0  0
   -5.2680    0.2510  -18.0650 C   0  0  0  0  0  0  0  0  0  0  0  0
   -6.2570   -0.5730  -17.7010 N   0  0  0  0  0  0  0  0  0  0  0  0
   -6.8600   -1.2810  -18.6590 C   0  0  0  0  0  0  0  0  0  0  0  0
  2  1  2  0
  3  2  1  0
  4  3  1  0
  5  4  2  0
  6  5  1  0
  7  6  2  0
  8  4  1  0
  9  8  2  0
  9  7  1  0
 10  9  1  0
 11  2  1  0
 12 11  1  0
 13 12  1  0
 14 13  1  0
 15 14  1  0
 16 15  1  0
 17 16  1  0
 18 17  1  0
 18 13  2  0
 19 18  1  0
 20 19  2  0
 21 20  1  0
 21 12  2  0
M  END
$$$$

     RDKit          3D

 30 33  0  0  0  0  0  0  0  0999 V2000
  -13.3650    5.3350  -22.4060 O   0  0  0  0  0  0  0  0  0  0  0  0
  -13.3320    4.1380  -22.6620 C   0  0  0  0  0  0  0  0  0  0  0  0
  -12.5750    2.9320  -22.1260 C   0  0  0  0  0  0  0  0  0  0  0  0
  -13.9970    3.3940  -23.5650 N   0  0  0  0  0  0  0  0  0  0  0  0
  -13.5660    2.1130  -22.9610 C   0  0  1  0  0  0  0  0  0  0  0  0
  -12.7760    1.3110  -23.8570 O   0  0  0  0  0  0  0  0  0  0  0  0
  -12.5000    0.0350  -23.4230 C   0  0  0  0  0  0  0  0  0  0  0  0
  -13.5170   -0.8420  -23.0770 C   0  0  0  0  0  0  0  0  0  0  0  0
  -13.1710   -2.1160  -22.6730 C   0  0  0  0  0  0  0  0  0  0  0  0
  -14.4250   -3.2130  -22.1720 Cl  0  0  0  0  0  0  0  0  0  0  0  0
  -11.1680   -0.3450  -23.3600 C   0  0  0  0  0  0  0  0  0  0  0  0
  -10.8620   -1.6350  -22.9590 C   0  0  0  0  0  0  0  0  0  0  0  0
  -11.8580   -2.5400  -22.6230 C   0  0  0  0  0  0  0  0  0  0  0  0
   -9.5230   -1.9230  -22.9240 O   0  0  0  0  0  0  0  0  0  0  0  0
   -9.1120   -3.2420  -22.5430 C   0  0  0  0  0  0  0  0  0  0  0  0
   -7.6180   -3.2370  -22.5150 C   0  0  0  0  0  0  0  0  0  0  0  0
   -7.1240   -2.2300  -21.5850 N   0  0  0  0  0  0  0  0  0  0  0  0
   -5.9120   -2.3110  -21.0390 C   0  0  0  0  0  0  0  0  0  0  0  0
   -5.1530   -3.2610  -21.2450 O   0  0  0  0  0  0  0  0  0  0  0  0
   -5.5140   -1.1860  -20.1760 C   0  0  0  0  0  0  0  0  0  0  0  0
   -4.5230   -0.2120  -20.6090 C   0  0  0  0  0  0  0  0  0  0  0  0
   -3.9720   -0.1980  -21.8940 C   0  0  0  0  0  0  0  0  0  0  0  0
   -3.0490    0.7760  -22.2440 C   0  0  0  0  0  0  0  0  0  0  0  0
   -2.6490    1.7290  -21.3230 C   0  0  0  0  0  0  0  0  0  0  0  0
   -3.1770    1.7310  -20.0400 C   0  0  0  0  0  0  0  0  0  0  0  0
   -4.1260    0.7690  -19.6810 C   0  0  0  0  0  0  0  0  0  0  0  0
   -4.7120    0.7870  -18.4200 N   0  0  0  0  0  0  0  0  0  0  0  0
   -5.6920   -0.0790  -18.0060 C   0  0  0  0  0  0  0  0  0  0  0  0
   -6.2430    0.0790  -16.9120 O   0  0  0  0  0  0  0  0  0  0  0  0
   -6.0630   -1.0880  -18.9400 C   0  0  0  0  0  0  0  0  0  0  0  0
  2  1  2  0
  3  2  1  0
  4  2  1  0
  5  4  1  0
  5  3  1  0
  5  6  1  6
  7  6  1  0
  8  7  2  0
  9  8  1  0
 10  9  1  0
 11  7  1  0
 12 11  2  0
 13  9  2  0
 13 12  1  0
 14 12  1  0
 15 14  1  0
 16 15  1  0
 17 16  1  0
 18 17  1  0
 19 18  2  0
 20 18  1  0
 21 20  1  0
 22 21  2  0
 23 22  1  0
 24 23  2  0
 25 24  1  0
 26 25  2  0
 26 21  1  0
 27 26  1  0
 28 27  1  0
 29 28  2  0
 30 28  1  0
 30 20  2  0
M  END
$$$$

     RDKit          3D

 20 22  0  0  0  0  0  0  0  0999 V2000
   -8.7850   -0.2380  -21.3400 O   0  0  0  0  0  0  0  0  0  0  0  0
   -8.2590   -1.3010  -21.6480 C   0  0  0  0  0  0  0  0  0  0  0  0
   -8.6980   -2.0800  -22.8700 C   0  0  0  0  0  0  0  0  0  0  0  0
  -10.1770   -1.8890  -23.1010 C   0  0  0  0  0  0  0  0  0  0  0  0
  -10.6390   -1.0030  -24.0640 C   0  0  0  0  0  0  0  0  0  0  0  0
  -11.9930   -0.7460  -24.2000 C   0  0  0  0  0  0  0  0  0  0  0  0
  -12.9090   -1.3770  -23.3750 C   0  0  0  0  0  0  0  0  0  0  0  0
  -11.0990   -2.5410  -22.2900 C   0  0  0  0  0  0  0  0  0  0  0  0
  -12.4450   -2.2760  -22.4370 C   0  0  0  0  0  0  0  0  0  0  0  0
  -13.5790   -3.0830  -21.3940 Cl  0  0  0  0  0  0  0  0  0  0  0  0
   -7.2420   -1.8500  -20.9560 N   0  0  0  0  0  0  0  0  0  0  0  0
   -6.5010   -1.1590  -19.9710 C   0  0  0  0  0  0  0  0  0  0  0  0
   -5.3740   -0.4090  -20.3400 C   0  0  0  0  0  0  0  0  0  0  0  0
   -4.9140   -0.2930  -21.7860 C   0  0  2  0  0  0  0  0  0  0  0  0
   -3.8180    0.6720  -22.1620 C   0  0  0  0  0  0  0  0  0  0  0  0
   -5.2180    0.9610  -22.5650 C   0  0  0  0  0  0  0  0  0  0  0  0
   -4.7000    0.2890  -19.3420 C   0  0  0  0  0  0  0  0  0  0  0  0
   -5.1710    0.2350  -18.0440 C   0  0  0  0  0  0  0  0  0  0  0  0
   -6.2490   -0.4690  -17.6760 N   0  0  0  0  0  0  0  0  0  0  0  0
   -6.8860   -1.1550  -18.6300 C   0  0  0  0  0  0  0  0  0  0  0  0
  2  1  2  0
  3  2  1  0
  4  3  1  0
  5  4  2  0
  6  5  1  0
  7  6  2  0
  8  4  1  0
  9  8  2  0
  9  7  1  0
 10  9  1  0
 11  2  1  0
 12 11  1  0
 13 12  1  0
 14 13  1  1
 15 14  1  0
 16 15  1  0
 16 14  1  0
 17 13  2  0
 18 17  1  0
 19 18  2  0
 20 19  1  0
 20 12  2  0
M  END
$$$$

     RDKit          3D

 24 26  0  0  0  0  0  0  0  0999 V2000
  -13.8010   -2.6680  -21.7950 Cl  0  0  0  0  0  0  0  0  0  0  0  0
  -12.5330   -1.9330  -22.7370 C   0  0  0  0  0  0  0  0  0  0  0  0
  -12.8660   -1.0320  -23.7310 C   0  0  0  0  0  0  0  0  0  0  0  0
  -11.8520   -0.5120  -24.5200 C   0  0  0  0  0  0  0  0  0  0  0  0
  -10.5310   -0.8640  -24.2840 C   0  0  0  0  0  0  0  0  0  0  0  0
  -11.2230   -2.2940  -22.4920 C   0  0  0  0  0  0  0  0  0  0  0  0
  -10.2000   -1.7430  -23.2580 C   0  0  0  0  0  0  0  0  0  0  0  0
   -8.7550   -2.0310  -22.9200 C   0  0  0  0  0  0  0  0  0  0  0  0
   -8.2310   -1.1220  -21.8240 C   0  0  0  0  0  0  0  0  0  0  0  0
   -8.8120   -0.0830  -21.5030 O   0  0  0  0  0  0  0  0  0  0  0  0
   -7.1010   -1.5570  -21.2360 N   0  0  0  0  0  0  0  0  0  0  0  0
   -6.4660   -1.0230  -20.0970 C   0  0  0  0  0  0  0  0  0  0  0  0
   -6.9340   -1.1990  -18.7940 C   0  0  0  0  0  0  0  0  0  0  0  0
   -6.3990   -0.6320  -17.7050 N   0  0  0  0  0  0  0  0  0  0  0  0
   -5.3580    0.1690  -17.8780 C   0  0  0  0  0  0  0  0  0  0  0  0
   -4.7730    0.4560  -19.1350 C   0  0  0  0  0  0  0  0  0  0  0  0
   -5.3290   -0.1800  -20.2810 C   0  0  0  0  0  0  0  0  0  0  0  0
   -4.7200    0.0580  -21.5400 C   0  0  0  0  0  0  0  0  0  0  0  0
   -3.6410    0.8860  -21.6560 C   0  0  0  0  0  0  0  0  0  0  0  0
   -3.6700    1.3240  -19.2980 C   0  0  0  0  0  0  0  0  0  0  0  0
   -3.1050    1.5350  -20.5320 C   0  0  0  0  0  0  0  0  0  0  0  0
   -1.9190    2.4350  -20.6590 C   0  0  0  0  0  0  0  0  0  0  0  0
   -1.5730    3.1830  -19.7400 O   0  0  0  0  0  0  0  0  0  0  0  0
   -1.2660    2.3400  -21.7850 O   0  0  0  0  0  0  0  0  0  0  0  0
  2  1  1  0
  3  2  2  0
  4  3  1  0
  5  4  2  0
  6  2  1  0
  7  6  2  0
  7  5  1  0
  8  7  1  0
  9  8  1  0
 10  9  2  0
 11  9  1  0
 12 11  1  0
 13 12  2  0
 14 13  1  0
 15 14  2  0
 16 15  1  0
 17 12  1  0
 17 16  2  0
 18 17  1  0
 19 18  2  0
 20 16  1  0
 21 20  2  0
 21 19  1  0
 22 21  1  0
 23 22  2  0
 24 22  1  0
M  CHG  1  24  -1
M  END
$$$$

     RDKit          3D

 41 46  0  0  0  0  0  0  0  0999 V2000
   -9.3740    0.3740  -21.4020 O   0  0  0  0  0  0  0  0  0  0  0  0
   -8.9250   -0.6480  -21.8830 C   0  0  0  0  0  0  0  0  0  0  0  0
   -9.4820   -1.3930  -23.1010 C   0  0  1  0  0  0  0  0  0  0  0  0
  -11.0060   -1.2270  -23.1110 C   0  0  0  0  0  0  0  0  0  0  0  0
  -11.7950   -2.0130  -22.2710 C   0  0  0  0  0  0  0  0  0  0  0  0
  -13.1470   -1.7480  -22.1660 C   0  0  0  0  0  0  0  0  0  0  0  0
  -14.1140   -2.7090  -21.0790 Cl  0  0  0  0  0  0  0  0  0  0  0  0
  -13.7460   -0.7450  -22.8950 C   0  0  0  0  0  0  0  0  0  0  0  0
  -12.9750    0.0020  -23.7640 C   0  0  0  0  0  0  0  0  0  0  0  0
  -11.6050   -0.2210  -23.8860 C   0  0  0  0  0  0  0  0  0  0  0  0
  -10.8080    0.6260  -24.8580 C   0  0  0  0  0  0  0  0  0  0  0  0
   -9.3750    0.6030  -24.5370 N   0  0  0  0  0  0  0  0  0  0  0  0
   -8.4480    1.9330  -24.7020 S   0  0  1  0  0  0  0  0  0  0  0  0
   -9.1750    2.8560  -25.5140 O   0  0  0  0  0  0  0  0  0  0  0  0
   -8.2890    2.6200  -23.0650 C   0  0  0  0  0  0  0  0  0  0  0  0
   -7.4650    3.8820  -22.8470 C   0  0  2  0  0  0  0  0  0  0  0  0
   -8.2980    5.0890  -22.8820 C   0  0  0  0  0  0  0  0  0  0  0  0
   -8.9830    5.9980  -22.8900 N   0  0  0  0  0  0  0  0  0  0  0  0
   -6.0820    3.9960  -23.4490 C   0  0  0  0  0  0  0  0  0  0  0  0
   -6.2250    3.8640  -21.9810 C   0  0  0  0  0  0  0  0  0  0  0  0
   -7.1560    1.4960  -25.1290 O   0  0  0  0  0  0  0  0  0  0  0  0
   -8.8410   -0.7580  -24.3620 C   0  0  0  0  0  0  0  0  0  0  0  0
   -8.9770   -2.8330  -22.8470 C   0  0  0  0  0  0  0  0  0  0  0  0
   -7.6690   -2.6390  -22.0850 C   0  0  0  0  0  0  0  0  0  0  0  0
   -7.8590   -1.3490  -21.4020 N   0  0  0  0  0  0  0  0  0  0  0  0
   -7.0160   -0.9250  -20.3190 C   0  0  0  0  0  0  0  0  0  0  0  0
   -7.4460   -1.1290  -19.0110 C   0  0  0  0  0  0  0  0  0  0  0  0
   -6.8250   -0.6810  -17.9100 N   0  0  0  0  0  0  0  0  0  0  0  0
   -5.7020    0.0030  -18.0790 C   0  0  0  0  0  0  0  0  0  0  0  0
   -5.7980   -0.2020  -20.5030 C   0  0  0  0  0  0  0  0  0  0  0  0
   -5.1240    0.2800  -19.3440 C   0  0  0  0  0  0  0  0  0  0  0  0
   -3.9380    1.0380  -19.5040 C   0  0  0  0  0  0  0  0  0  0  0  0
   -3.4420    1.3040  -20.7480 C   0  0  0  0  0  0  0  0  0  0  0  0
   -5.2540    0.0930  -21.7750 C   0  0  0  0  0  0  0  0  0  0  0  0
   -4.1010    0.8320  -21.8810 C   0  0  0  0  0  0  0  0  0  0  0  0
   -3.5120    1.1680  -23.0790 O   0  0  0  0  0  0  0  0  0  0  0  0
   -4.2440    0.9380  -24.3020 C   0  0  0  0  0  0  0  0  0  0  0  0
   -3.2770    0.9530  -25.4630 C   0  0  0  0  0  0  0  0  0  0  0  0
   -3.3170    2.1930  -26.2460 N   0  0  2  0  0  0  0  0  0  0  0  0
   -3.7010    1.9130  -27.6280 C   0  0  0  0  0  0  0  0  0  0  0  0
   -2.0260    2.8760  -26.2170 C   0  0  0  0  0  0  0  0  0  0  0  0
  2  1  2  0
  3  2  1  0
  4  3  1  0
  5  4  2  0
  6  5  1  0
  7  6  1  0
  8  6  2  0
  9  8  1  0
 10  9  2  0
 10  4  1  0
 11 10  1  0
 12 11  1  0
 13 12  1  0
 14 13  2  0
 13 15  1  1
 16 15  1  6
 17 16  1  0
 18 17  3  0
 19 16  1  0
 20 19  1  0
 20 16  1  0
 21 13  2  0
 22 12  1  0
  3 22  1  6
 23  3  1  0
 24 23  1  0
 25 24  1  0
 25  2  1  0
 26 25  1  0
 27 26  2  0
 28 27  1  0
 29 28  2  0
 30 26  1  0
 31 30  2  0
 31 29  1  0
 32 31  1  0
 33 32  2  0
 34 30  1  0
 35 34  2  0
 35 33  1  0
 36 35  1  0
 37 36  1  0
 38 37  1  0
 39 38  1  0
 39 40  1  6
 41 39  1  0
M  CHG  1  39   1
M  END
$$$$

     RDKit          3D

 32 35  0  0  0  0  0  0  0  0999 V2000
  -13.8540   -2.8850  -21.4680 Cl  0  0  0  0  0  0  0  0  0  0  0  0
  -12.6930   -2.0140  -22.4380 C   0  0  0  0  0  0  0  0  0  0  0  0
  -11.3550   -2.3590  -22.3680 C   0  0  0  0  0  0  0  0  0  0  0  0
  -13.1330   -1.0040  -23.2620 C   0  0  0  0  0  0  0  0  0  0  0  0
  -12.2200   -0.3520  -24.0680 C   0  0  0  0  0  0  0  0  0  0  0  0
  -10.8640   -0.6730  -24.0300 C   0  0  0  0  0  0  0  0  0  0  0  0
   -9.9280    0.0490  -24.9730 C   0  0  0  0  0  0  0  0  0  0  0  0
   -8.5300   -0.1490  -24.5770 N   0  0  0  0  0  0  0  0  0  0  0  0
   -7.4110    0.8070  -25.2130 S   0  0  1  0  0  0  0  0  0  0  0  0
   -6.1460    0.3850  -24.7230 O   0  0  0  0  0  0  0  0  0  0  0  0
   -7.6570    0.8830  -26.6130 O   0  0  0  0  0  0  0  0  0  0  0  0
   -7.7690    2.2230  -24.5650 N   0  0  0  0  0  0  0  0  0  0  0  0
   -7.6560    2.4220  -23.1070 C   0  0  0  0  0  0  0  0  0  0  0  0
   -6.6300    3.4270  -22.7720 C   0  0  0  0  0  0  0  0  0  0  0  0
   -5.8560    4.2070  -22.4680 N   0  0  0  0  0  0  0  0  0  0  0  0
   -7.7040    3.4200  -25.4110 C   0  0  0  0  0  0  0  0  0  0  0  0
  -10.4210   -1.6740  -23.1490 C   0  0  0  0  0  0  0  0  0  0  0  0
   -8.9340   -1.9490  -22.9980 C   0  0  1  0  0  0  0  0  0  0  0  0
   -8.1810   -1.5480  -24.2690 C   0  0  0  0  0  0  0  0  0  0  0  0
   -8.4070   -1.1210  -21.8210 C   0  0  0  0  0  0  0  0  0  0  0  0
   -8.9990   -0.1230  -21.4080 O   0  0  0  0  0  0  0  0  0  0  0  0
   -7.2440   -1.5700  -21.2810 N   0  0  0  0  0  0  0  0  0  0  0  0
   -6.5410   -1.0380  -20.1720 C   0  0  0  0  0  0  0  0  0  0  0  0
   -5.3880   -0.2220  -20.4040 C   0  0  0  0  0  0  0  0  0  0  0  0
   -4.8120   -0.0130  -21.6840 C   0  0  0  0  0  0  0  0  0  0  0  0
   -3.7270    0.8040  -21.8420 C   0  0  0  0  0  0  0  0  0  0  0  0
   -3.1620    1.4500  -20.7490 C   0  0  0  0  0  0  0  0  0  0  0  0
   -3.6730    1.2760  -19.4970 C   0  0  0  0  0  0  0  0  0  0  0  0
   -4.7900    0.4310  -19.2840 C   0  0  0  0  0  0  0  0  0  0  0  0
   -5.3480    0.1900  -18.0030 C   0  0  0  0  0  0  0  0  0  0  0  0
   -6.4020   -0.5890  -17.7850 N   0  0  0  0  0  0  0  0  0  0  0  0
   -6.9730   -1.1720  -18.8500 C   0  0  0  0  0  0  0  0  0  0  0  0
  2  1  1  0
  3  2  2  0
  4  2  1  0
  5  4  2  0
  6  5  1  0
  7  6  1  0
  8  7  1  0
  9  8  1  0
 10  9  2  0
 11  9  2  0
  9 12  1  1
 13 12  1  0
 14 13  1  0
 15 14  3  0
 16 12  1  0
 17  3  1  0
 17  6  2  0
 18 17  1  0
 19 18  1  0
 19  8  1  0
 18 20  1  1
 21 20  2  0
 22 20  1  0
 23 22  1  0
 24 23  1  0
 25 24  2  0
 26 25  1  0
 27 26  2  0
 28 27  1  0
 29 28  2  0
 29 24  1  0
 30 29  1  0
 31 30  2  0
 32 31  1  0
 32 23  2  0
M  END
$$$$

     RDKit          3D

 25 28  0  0  0  0  0  0  0  0999 V2000
   -9.0680    0.1650  -21.2670 O   0  0  0  0  0  0  0  0  0  0  0  0
   -8.5320   -0.8510  -21.7120 C   0  0  0  0  0  0  0  0  0  0  0  0
   -9.1150   -1.6000  -22.9090 C   0  0  1  0  0  0  0  0  0  0  0  0
  -10.6180   -1.5020  -23.0670 C   0  0  0  0  0  0  0  0  0  0  0  0
  -11.4780   -2.3020  -22.3160 C   0  0  0  0  0  0  0  0  0  0  0  0
  -12.8420   -2.0950  -22.3790 C   0  0  0  0  0  0  0  0  0  0  0  0
  -13.8740   -2.9260  -21.2470 Cl  0  0  0  0  0  0  0  0  0  0  0  0
  -13.3910   -1.1530  -23.2220 C   0  0  0  0  0  0  0  0  0  0  0  0
  -12.5570   -0.3660  -23.9940 C   0  0  0  0  0  0  0  0  0  0  0  0
  -11.1830   -0.5410  -23.9120 C   0  0  0  0  0  0  0  0  0  0  0  0
  -10.4260    0.2480  -24.7450 O   0  0  0  0  0  0  0  0  0  0  0  0
   -9.0050    0.2990  -24.5250 C   0  0  0  0  0  0  0  0  0  0  0  0
   -8.4100   -1.0480  -24.1720 C   0  0  2  0  0  0  0  0  0  0  0  0
   -8.5070   -2.0180  -25.3490 C   0  0  0  0  0  0  0  0  0  0  0  0
   -7.4000   -1.3890  -21.1980 N   0  0  0  0  0  0  0  0  0  0  0  0
   -6.6450   -0.9190  -20.1010 C   0  0  0  0  0  0  0  0  0  0  0  0
   -5.4920   -0.1130  -20.3580 C   0  0  0  0  0  0  0  0  0  0  0  0
   -4.9980    0.1710  -21.6580 C   0  0  0  0  0  0  0  0  0  0  0  0
   -3.9180    0.9870  -21.8390 C   0  0  0  0  0  0  0  0  0  0  0  0
   -3.2720    1.5560  -20.7500 C   0  0  0  0  0  0  0  0  0  0  0  0
   -3.7040    1.3070  -19.4780 C   0  0  0  0  0  0  0  0  0  0  0  0
   -4.8220    0.4690  -19.2470 C   0  0  0  0  0  0  0  0  0  0  0  0
   -5.3300    0.1960  -17.9550 C   0  0  0  0  0  0  0  0  0  0  0  0
   -6.3930   -0.5600  -17.7160 N   0  0  0  0  0  0  0  0  0  0  0  0
   -7.0170   -1.1000  -18.7700 C   0  0  0  0  0  0  0  0  0  0  0  0
  2  1  2  0
  3  2  1  1
  4  3  1  0
  5  4  2  0
  6  5  1  0
  7  6  1  0
  8  6  2  0
  9  8  1  0
 10  9  2  0
 10  4  1  0
 11 10  1  0
 12 11  1  0
 13 12  1  0
 13  3  1  0
 13 14  1  6
 15  2  1  0
 16 15  1  0
 17 16  1  0
 18 17  2  0
 19 18  1  0
 20 19  2  0
 21 20  1  0
 22 17  1  0
 22 21  2  0
 23 22  1  0
 24 23  2  0
 25 24  1  0
 25 16  2  0
M  END
$$$$

     RDKit          3D

 18 19  0  0  0  0  0  0  0  0999 V2000
   -7.0380   -3.4970  -18.4860 C   0  0  0  0  0  0  0  0  0  0  0  0
   -7.4680   -2.1160  -18.9590 C   0  0  0  0  0  0  0  0  0  0  0  0
   -6.3860   -1.0750  -18.6730 C   0  0  0  0  0  0  0  0  0  0  0  0
   -5.3450   -0.8010  -19.6290 N   0  0  0  0  0  0  0  0  0  0  0  0
   -5.2370   -1.4050  -20.9200 C   0  0  0  0  0  0  0  0  0  0  0  0
   -5.3640   -0.3340  -22.0170 C   0  0  0  0  0  0  0  0  0  0  0  0
   -4.6100    0.8260  -21.7410 N   0  0  1  0  0  0  0  0  0  0  0  0
   -4.6000    1.6980  -22.6520 C   0  0  0  0  0  0  0  0  0  0  0  0
   -5.9050    2.4750  -22.9060 C   0  0  0  0  0  0  0  0  0  0  0  0
   -6.8330    2.0450  -23.8540 C   0  0  0  0  0  0  0  0  0  0  0  0
   -7.9790    2.7840  -24.1110 C   0  0  0  0  0  0  0  0  0  0  0  0
   -6.1040    3.6980  -22.2840 C   0  0  0  0  0  0  0  0  0  0  0  0
   -7.2480    4.4360  -22.5490 C   0  0  0  0  0  0  0  0  0  0  0  0
   -8.1580    4.0100  -23.4920 C   0  0  0  0  0  0  0  0  0  0  0  0
   -9.2650    4.7700  -23.7270 F   0  0  0  0  0  0  0  0  0  0  0  0
   -4.4720    1.3210  -20.4250 C   0  0  0  0  0  0  0  0  0  0  0  0
   -4.3500    0.1960  -19.3910 C   0  0  0  0  0  0  0  0  0  0  0  0
   -6.3770   -0.4750  -17.6600 O   0  0  0  0  0  0  0  0  0  0  0  0
  2  1  1  0
  3  2  1  0
  4  3  1  0
  5  4  1  0
  6  5  1  0
  7  6  1  0
  7  8  1  6
  9  8  1  0
 10  9  2  0
 11 10  1  0
 12  9  1  0
 13 12  2  0
 14 13  1  0
 14 11  2  0
 15 14  1  0
 16  7  1  0
 17 16  1  0
 17  4  1  0
 18  3  2  0
M  CHG  1   7   1
M  END
$$$$

     RDKit          3D

 28 31  0  0  0  0  0  0  0  0999 V2000
   -9.0810    0.0630  -21.2580 O   0  0  0  0  0  0  0  0  0  0  0  0
   -8.7940   -1.0560  -21.6710 C   0  0  0  0  0  0  0  0  0  0  0  0
   -7.6970   -1.8730  -21.0130 C   0  0  0  0  0  0  0  0  0  0  0  0
   -6.9510   -1.0970  -19.9550 C   0  0  0  0  0  0  0  0  0  0  0  0
   -5.9040   -0.2010  -20.3090 C   0  0  0  0  0  0  0  0  0  0  0  0
   -5.5380    0.0810  -21.6510 C   0  0  0  0  0  0  0  0  0  0  0  0
   -4.5360    0.9660  -21.9380 C   0  0  0  0  0  0  0  0  0  0  0  0
   -3.8550    1.6170  -20.9180 C   0  0  0  0  0  0  0  0  0  0  0  0
   -4.1720    1.3820  -19.6110 C   0  0  0  0  0  0  0  0  0  0  0  0
   -5.1990    0.4680  -19.2700 C   0  0  0  0  0  0  0  0  0  0  0  0
   -5.5890    0.1920  -17.9380 C   0  0  0  0  0  0  0  0  0  0  0  0
   -6.5780   -0.6290  -17.6100 N   0  0  0  0  0  0  0  0  0  0  0  0
   -7.2280   -1.2470  -18.6090 C   0  0  0  0  0  0  0  0  0  0  0  0
   -9.4140   -1.6100  -22.7380 N   0  0  0  0  0  0  0  0  0  0  0  0
  -10.3530   -0.8270  -23.5120 C   0  0  0  0  0  0  0  0  0  0  0  0
  -11.7620   -1.1720  -23.1410 C   0  0  0  0  0  0  0  0  0  0  0  0
  -13.0680   -0.4170  -23.9000 S   0  0  0  0  0  0  0  0  0  0  0  0
  -14.2000   -1.2610  -22.9230 C   0  0  0  0  0  0  0  0  0  0  0  0
  -13.6120   -2.1020  -22.0450 C   0  0  0  0  0  0  0  0  0  0  0  0
  -12.2010   -2.0810  -22.1510 C   0  0  0  0  0  0  0  0  0  0  0  0
   -9.2030   -2.9960  -23.1830 C   0  0  0  0  0  0  0  0  0  0  0  0
   -8.2090   -3.0810  -24.3300 C   0  0  0  0  0  0  0  0  0  0  0  0
   -8.1510   -4.5050  -24.8930 C   0  0  1  0  0  0  0  0  0  0  0  0
   -9.4370   -4.8680  -25.6340 C   0  0  0  0  0  0  0  0  0  0  0  0
   -9.3920   -6.2750  -26.2330 C   0  0  0  0  0  0  0  0  0  0  0  0
   -8.1840   -6.4560  -27.1420 C   0  0  0  0  0  0  0  0  0  0  0  0
   -6.9000   -6.1120  -26.4060 C   0  0  0  0  0  0  0  0  0  0  0  0
   -6.9510   -4.7020  -25.8190 C   0  0  0  0  0  0  0  0  0  0  0  0
  2  1  2  0
  3  2  1  0
  4  3  1  0
  5  4  1  0
  6  5  2  0
  7  6  1  0
  8  7  2  0
  9  8  1  0
 10  5  1  0
 10  9  2  0
 11 10  1  0
 12 11  2  0
 13 12  1  0
 13  4  2  0
 14  2  1  0
 15 14  1  0
 16 15  1  0
 17 16  1  0
 18 17  1  0
 19 18  2  0
 20 19  1  0
 20 16  2  0
 21 14  1  0
 22 21  1  0
 23 22  1  6
 24 23  1  0
 25 24  1  0
 26 25  1  0
 27 26  1  0
 28 27  1  0
 28 23  1  0
M  END
$$$$

     RDKit          3D

 23 25  0  0  0  0  0  0  0  0999 V2000
  -13.5730   -3.0100  -21.8890 Cl  0  0  0  0  0  0  0  0  0  0  0  0
  -12.3200   -2.0880  -22.6590 C   0  0  0  0  0  0  0  0  0  0  0  0
  -12.6260   -1.0920  -23.5770 C   0  0  0  0  0  0  0  0  0  0  0  0
  -14.2670   -0.6120  -23.8590 Cl  0  0  0  0  0  0  0  0  0  0  0  0
  -11.6100   -0.4030  -24.2110 C   0  0  0  0  0  0  0  0  0  0  0  0
  -10.2920   -0.6910  -23.9100 C   0  0  0  0  0  0  0  0  0  0  0  0
  -11.0000   -2.3630  -22.3500 C   0  0  0  0  0  0  0  0  0  0  0  0
   -9.9710   -1.6630  -22.9720 C   0  0  0  0  0  0  0  0  0  0  0  0
   -8.5200   -2.0180  -22.6650 C   0  0  2  0  0  0  0  0  0  0  0  0
   -8.3210   -3.5460  -22.7020 C   0  0  0  0  0  0  0  0  0  0  0  0
   -8.0610   -1.1670  -21.4700 C   0  0  0  0  0  0  0  0  0  0  0  0
   -8.6280   -0.1160  -21.1740 O   0  0  0  0  0  0  0  0  0  0  0  0
   -6.9370   -1.6000  -20.8320 N   0  0  0  0  0  0  0  0  0  0  0  0
   -6.2240   -0.9610  -19.8010 C   0  0  0  0  0  0  0  0  0  0  0  0
   -5.1850   -0.0480  -20.1580 C   0  0  0  0  0  0  0  0  0  0  0  0
   -4.7860    0.2120  -21.4970 C   0  0  0  0  0  0  0  0  0  0  0  0
   -3.8090    1.1270  -21.7740 C   0  0  0  0  0  0  0  0  0  0  0  0
   -3.1830    1.8260  -20.7480 C   0  0  0  0  0  0  0  0  0  0  0  0
   -3.5280    1.6060  -19.4450 C   0  0  0  0  0  0  0  0  0  0  0  0
   -4.5370    0.6660  -19.1130 C   0  0  0  0  0  0  0  0  0  0  0  0
   -4.9660    0.4190  -17.7870 C   0  0  0  0  0  0  0  0  0  0  0  0
   -5.9310   -0.4310  -17.4580 N   0  0  0  0  0  0  0  0  0  0  0  0
   -6.5330   -1.0980  -18.4500 C   0  0  0  0  0  0  0  0  0  0  0  0
  2  1  1  0
  3  2  2  0
  4  3  1  0
  5  3  1  0
  6  5  2  0
  7  2  1  0
  8  7  2  0
  8  6  1  0
  9  8  1  0
  9 10  1  1
 11  9  1  0
 12 11  2  0
 13 11  1  0
 14 13  1  0
 15 14  1  0
 16 15  2  0
 17 16  1  0
 18 17  2  0
 19 18  1  0
 20 19  2  0
 20 15  1  0
 21 20  1  0
 22 21  2  0
 23 22  1  0
 23 14  2  0
M  END
$$$$

     RDKit          3D

 27 29  0  0  0  0  0  0  0  0999 V2000
  -13.6450   -2.9930  -22.3170 Cl  0  0  0  0  0  0  0  0  0  0  0  0
  -12.2230   -2.1400  -22.8190 C   0  0  0  0  0  0  0  0  0  0  0  0
  -12.3110   -1.0590  -23.6810 C   0  0  0  0  0  0  0  0  0  0  0  0
  -13.8490   -0.3890  -24.1090 Cl  0  0  0  0  0  0  0  0  0  0  0  0
  -11.1580   -0.4750  -24.1750 C   0  0  0  0  0  0  0  0  0  0  0  0
   -9.9230   -0.9550  -23.7820 C   0  0  0  0  0  0  0  0  0  0  0  0
  -10.9840   -2.5990  -22.4050 C   0  0  0  0  0  0  0  0  0  0  0  0
   -9.8190   -2.0040  -22.8780 C   0  0  0  0  0  0  0  0  0  0  0  0
   -8.4730   -2.4640  -22.3790 C   0  0  1  0  0  0  0  0  0  0  0  0
   -7.6900   -2.9480  -23.4730 O   0  0  0  0  0  0  0  0  0  0  0  0
   -7.7450   -4.3700  -23.6350 C   0  0  0  0  0  0  0  0  0  0  0  0
   -6.6670   -5.0260  -22.8260 C   0  0  0  0  0  0  0  0  0  0  0  0
   -6.5340   -6.4300  -23.0280 O   0  0  0  0  0  0  0  0  0  0  0  0
   -5.4210   -6.9590  -22.3160 C   0  0  0  0  0  0  0  0  0  0  0  0
   -7.7970   -1.3930  -21.5150 C   0  0  0  0  0  0  0  0  0  0  0  0
   -7.9820   -0.1980  -21.7350 O   0  0  0  0  0  0  0  0  0  0  0  0
   -7.1650   -1.8640  -20.4240 N   0  0  0  0  0  0  0  0  0  0  0  0
   -6.2570   -1.2440  -19.5470 C   0  0  0  0  0  0  0  0  0  0  0  0
   -5.3330   -0.2400  -19.9850 C   0  0  0  0  0  0  0  0  0  0  0  0
   -4.8920   -0.0980  -21.3280 C   0  0  0  0  0  0  0  0  0  0  0  0
   -3.9050    0.7910  -21.6570 C   0  0  0  0  0  0  0  0  0  0  0  0
   -3.3080    1.5750  -20.6860 C   0  0  0  0  0  0  0  0  0  0  0  0
   -3.7010    1.4830  -19.3830 C   0  0  0  0  0  0  0  0  0  0  0  0
   -4.7180    0.5760  -18.9950 C   0  0  0  0  0  0  0  0  0  0  0  0
   -5.0840    0.3600  -17.6480 C   0  0  0  0  0  0  0  0  0  0  0  0
   -5.9240   -0.5730  -17.2430 N   0  0  0  0  0  0  0  0  0  0  0  0
   -6.4700   -1.3580  -18.1760 C   0  0  0  0  0  0  0  0  0  0  0  0
  2  1  1  0
  3  2  2  0
  4  3  1  0
  5  3  1  0
  6  5  2  0
  7  2  1  0
  8  7  2  0
  8  6  1  0
  9  8  1  0
  9 10  1  6
 11 10  1  0
 12 11  1  0
 13 12  1  0
 14 13  1  0
 15  9  1  0
 16 15  2  0
 17 15  1  0
 18 17  1  0
 19 18  1  0
 20 19  2  0
 21 20  1  0
 22 21  2  0
 23 22  1  0
 24 23  2  0
 24 19  1  0
 25 24  1  0
 26 25  2  0
 27 26  1  0
 27 18  2  0
M  END
$$$$

     RDKit          3D

 17 19  0  0  0  0  0  0  0  0999 V2000
   -9.4830   -0.6590  -21.3170 O   0  0  0  0  0  0  0  0  0  0  0  0
   -8.6130   -0.9590  -22.1180 C   0  0  0  0  0  0  0  0  0  0  0  0
   -8.9360   -1.5410  -23.4760 C   0  0  2  0  0  0  0  0  0  0  0  0
  -10.4110   -2.0270  -23.6960 C   0  0  1  0  0  0  0  0  0  0  0  0
  -11.4920   -2.3310  -22.6170 C   0  0  0  0  0  0  0  0  0  0  0  0
  -12.3550   -1.1990  -23.1720 C   0  0  0  0  0  0  0  0  0  0  0  0
  -11.4640   -1.1380  -24.4140 C   0  0  0  0  0  0  0  0  0  0  0  0
   -9.8330   -3.2710  -24.4160 C   0  0  0  0  0  0  0  0  0  0  0  0
   -8.4700   -2.9810  -23.7600 C   0  0  0  0  0  0  0  0  0  0  0  0
   -7.3040   -0.6950  -21.9220 N   0  0  0  0  0  0  0  0  0  0  0  0
   -6.5760   -0.5790  -20.7100 C   0  0  0  0  0  0  0  0  0  0  0  0
   -5.2340   -0.1490  -20.7670 C   0  0  0  0  0  0  0  0  0  0  0  0
   -4.5200    0.0670  -22.0760 C   0  0  0  0  0  0  0  0  0  0  0  0
   -7.1380   -0.8390  -19.4570 C   0  0  0  0  0  0  0  0  0  0  0  0
   -6.4970   -0.6350  -18.3010 N   0  0  0  0  0  0  0  0  0  0  0  0
   -5.2470   -0.1690  -18.3690 C   0  0  0  0  0  0  0  0  0  0  0  0
   -4.5840    0.0720  -19.5560 C   0  0  0  0  0  0  0  0  0  0  0  0
  2  1  2  0
  3  2  1  1
  4  3  1  0
  4  5  1  1
  6  5  1  0
  7  6  1  0
  7  4  1  0
  8  4  1  0
  9  8  1  0
  9  3  1  0
 10  2  1  0
 11 10  1  0
 12 11  2  0
 13 12  1  0
 14 11  1  0
 15 14  2  0
 16 15  1  0
 17 16  2  0
 17 12  1  0
M  END
$$$$

     RDKit          3D

 30 33  0  0  0  0  0  0  0  0999 V2000
  -13.7320   -2.7540  -21.5740 Cl  0  0  0  0  0  0  0  0  0  0  0  0
  -12.5400   -1.9740  -22.5750 C   0  0  0  0  0  0  0  0  0  0  0  0
  -11.2140   -2.3410  -22.4500 C   0  0  0  0  0  0  0  0  0  0  0  0
  -12.9360   -0.9810  -23.4400 C   0  0  0  0  0  0  0  0  0  0  0  0
  -11.9800   -0.3400  -24.2070 C   0  0  0  0  0  0  0  0  0  0  0  0
  -10.6290   -0.6660  -24.0940 C   0  0  0  0  0  0  0  0  0  0  0  0
   -9.6170    0.0770  -24.9390 C   0  0  0  0  0  0  0  0  0  0  0  0
   -8.2380   -0.1090  -24.4570 N   0  0  2  0  0  0  0  0  0  0  0  0
   -7.2480    0.5290  -25.3160 C   0  0  0  0  0  0  0  0  0  0  0  0
   -6.6030    1.7650  -24.7110 C   0  0  0  0  0  0  0  0  0  0  0  0
   -5.7590    2.3950  -25.3420 O   0  0  0  0  0  0  0  0  0  0  0  0
   -6.9810    2.1090  -23.4830 N   0  0  0  0  0  0  0  0  0  0  0  0
   -6.3990    3.2370  -22.7780 C   0  0  0  0  0  0  0  0  0  0  0  0
  -10.2430   -1.6710  -23.1940 C   0  0  0  0  0  0  0  0  0  0  0  0
   -8.7700   -1.9690  -22.9880 C   0  0  1  0  0  0  0  0  0  0  0  0
   -7.9650   -1.5240  -24.2090 C   0  0  0  0  0  0  0  0  0  0  0  0
   -8.2830   -1.1750  -21.7720 C   0  0  0  0  0  0  0  0  0  0  0  0
   -8.7730   -0.0890  -21.4600 O   0  0  0  0  0  0  0  0  0  0  0  0
   -7.2310   -1.7310  -21.1250 N   0  0  0  0  0  0  0  0  0  0  0  0
   -6.4840   -1.1950  -20.0520 C   0  0  0  0  0  0  0  0  0  0  0  0
   -5.3890   -0.3300  -20.3600 C   0  0  0  0  0  0  0  0  0  0  0  0
   -4.8670   -0.1610  -21.6670 C   0  0  0  0  0  0  0  0  0  0  0  0
   -3.8190    0.6780  -21.9020 C   0  0  0  0  0  0  0  0  0  0  0  0
   -3.2680    1.3730  -20.8520 C   0  0  0  0  0  0  0  0  0  0  0  0
   -2.2430    2.2240  -21.1170 F   0  0  0  0  0  0  0  0  0  0  0  0
   -3.7010    1.2670  -19.5710 C   0  0  0  0  0  0  0  0  0  0  0  0
   -4.7840    0.3970  -19.2930 C   0  0  0  0  0  0  0  0  0  0  0  0
   -5.3000    0.2020  -17.9860 C   0  0  0  0  0  0  0  0  0  0  0  0
   -6.3160   -0.6010  -17.6990 N   0  0  0  0  0  0  0  0  0  0  0  0
   -6.8820   -1.2710  -18.7150 C   0  0  0  0  0  0  0  0  0  0  0  0
  2  1  1  0
  3  2  2  0
  4  2  1  0
  5  4  2  0
  6  5  1  0
  7  6  1  0
  8  7  1  0
  8  9  1  6
 10  9  1  0
 11 10  2  0
 12 10  1  0
 13 12  1  0
 14  3  1  0
 14  6  2  0
 15 14  1  0
 16 15  1  0
 16  8  1  0
 15 17  1  1
 18 17  2  0
 19 17  1  0
 20 19  1  0
 21 20  1  0
 22 21  2  0
 23 22  1  0
 24 23  2  0
 25 24  1  0
 26 24  1  0
 27 26  2  0
 27 21  1  0
 28 27  1  0
 29 28  2  0
 30 29  1  0
 30 20  2  0
M  CHG  1   8   1
M  END
$$$$

     RDKit          3D

 17 18  0  0  0  0  0  0  0  0999 V2000
   -6.6330   -5.4430  -21.6490 N   0  0  0  0  0  0  0  0  0  0  0  0
   -6.7780   -4.1690  -19.5470 C   0  0  0  0  0  0  0  0  0  0  0  0
   -5.3440   -6.0160  -19.8830 O   0  0  0  0  0  0  0  0  0  0  0  0
   -6.1930   -5.2840  -20.3790 C   0  0  0  0  0  0  0  0  0  0  0  0
   -6.8340   -6.0840  -29.4350 C   0  0  0  0  0  0  0  0  0  0  0  0
   -5.4100   -5.6440  -29.1450 C   0  0  0  0  0  0  0  0  0  0  0  0
   -5.3610   -4.4670  -28.1850 C   0  0  0  0  0  0  0  0  0  0  0  0
   -7.5770   -4.5800  -22.3740 C   0  0  0  0  0  0  0  0  0  0  0  0
   -6.9000   -3.9800  -23.5910 C   0  0  0  0  0  0  0  0  0  0  0  0
   -6.3220   -5.0820  -24.4870 C   0  0  2  0  0  0  0  0  0  0  0  0
   -5.3910   -5.9640  -23.6730 C   0  0  0  0  0  0  0  0  0  0  0  0
   -6.1220   -6.5370  -22.4830 C   0  0  0  0  0  0  0  0  0  0  0  0
   -5.6210   -4.5310  -25.7080 C   0  0  0  0  0  0  0  0  0  0  0  0
   -7.5260   -5.1200  -27.2600 C   0  0  0  0  0  0  0  0  0  0  0  0
   -7.5590   -6.3560  -28.1320 C   0  0  0  0  0  0  0  0  0  0  0  0
   -6.1450   -4.7160  -26.9660 N   0  0  0  0  0  0  0  0  0  0  0  0
   -4.5580   -3.9310  -25.5710 O   0  0  0  0  0  0  0  0  0  0  0  0
  4  2  1  0
  4  1  1  0
  4  3  2  0
  6  5  1  0
  7  6  1  0
  8  1  1  0
  9  8  1  0
 10  9  1  0
 11 10  1  0
 12  1  1  0
 12 11  1  0
 10 13  1  6
 15  5  1  0
 15 14  1  0
 16 14  1  0
 16 13  1  0
 16  7  1  0
 17 13  2  0
M  END
$$$$

     RDKit          3D

 25 28  0  0  0  0  0  0  0  0999 V2000
   -8.8370    0.4400  -21.5590 O   0  0  0  0  0  0  0  0  0  0  0  0
   -8.4680   -0.6430  -22.0060 C   0  0  0  0  0  0  0  0  0  0  0  0
   -9.0800   -1.2330  -23.2750 C   0  0  1  0  0  0  0  0  0  0  0  0
  -10.5920   -1.2390  -23.1750 C   0  0  0  0  0  0  0  0  0  0  0  0
  -11.2640   -2.1180  -22.3220 C   0  0  0  0  0  0  0  0  0  0  0  0
  -12.6380   -2.0460  -22.2070 C   0  0  0  0  0  0  0  0  0  0  0  0
  -13.4430   -3.0610  -21.0400 Cl  0  0  0  0  0  0  0  0  0  0  0  0
  -13.3770   -1.1410  -22.9350 C   0  0  0  0  0  0  0  0  0  0  0  0
  -12.7270   -0.2790  -23.7980 C   0  0  0  0  0  0  0  0  0  0  0  0
  -11.3510   -0.3290  -23.9130 C   0  0  0  0  0  0  0  0  0  0  0  0
  -10.7910    0.5660  -24.7950 O   0  0  0  0  0  0  0  0  0  0  0  0
   -9.3780    0.7910  -24.7030 C   0  0  0  0  0  0  0  0  0  0  0  0
   -8.6140   -0.5080  -24.5620 C   0  0  1  0  0  0  0  0  0  0  0  0
   -7.1110   -0.2490  -24.5610 C   0  0  0  0  0  0  0  0  0  0  0  0
   -7.5170   -1.4030  -21.4280 N   0  0  0  0  0  0  0  0  0  0  0  0
   -6.6880   -1.0580  -20.3470 C   0  0  0  0  0  0  0  0  0  0  0  0
   -5.4310   -0.4310  -20.6250 C   0  0  0  0  0  0  0  0  0  0  0  0
   -4.8870   -0.3000  -21.9280 C   0  0  0  0  0  0  0  0  0  0  0  0
   -3.7080    0.3630  -22.1330 C   0  0  0  0  0  0  0  0  0  0  0  0
   -3.0230    0.9320  -21.0690 C   0  0  0  0  0  0  0  0  0  0  0  0
   -3.5020    0.8250  -19.7940 C   0  0  0  0  0  0  0  0  0  0  0  0
   -4.7090    0.1290  -19.5360 C   0  0  0  0  0  0  0  0  0  0  0  0
   -5.2610   -0.0130  -18.2390 C   0  0  0  0  0  0  0  0  0  0  0  0
   -6.4150   -0.6180  -17.9790 N   0  0  0  0  0  0  0  0  0  0  0  0
   -7.0970   -1.1220  -19.0160 C   0  0  0  0  0  0  0  0  0  0  0  0
  2  1  2  0
  3  2  1  1
  4  3  1  0
  5  4  2  0
  6  5  1  0
  7  6  1  0
  8  6  2  0
  9  8  1  0
 10  9  2  0
 10  4  1  0
 11 10  1  0
 12 11  1  0
 13 12  1  0
 13  3  1  0
 13 14  1  1
 15  2  1  0
 16 15  1  0
 17 16  1  0
 18 17  2  0
 19 18  1  0
 20 19  2  0
 21 20  1  0
 22 21  2  0
 22 17  1  0
 23 22  1  0
 24 23  2  0
 25 24  1  0
 25 16  2  0
M  END
$$$$

     RDKit          3D

 21 23  0  0  0  0  0  0  0  0999 V2000
  -13.5100   -3.1150  -21.5780 Cl  0  0  0  0  0  0  0  0  0  0  0  0
  -12.3650   -2.2540  -22.5510 C   0  0  0  0  0  0  0  0  0  0  0  0
  -12.8210   -1.2840  -23.4280 C   0  0  0  0  0  0  0  0  0  0  0  0
  -11.9130   -0.5770  -24.1950 C   0  0  0  0  0  0  0  0  0  0  0  0
  -11.0270   -2.5490  -22.4200 C   0  0  0  0  0  0  0  0  0  0  0  0
  -10.1150   -1.8200  -23.1650 C   0  0  0  0  0  0  0  0  0  0  0  0
  -10.5680   -0.8460  -24.0310 C   0  0  0  0  0  0  0  0  0  0  0  0
   -9.5110   -0.1550  -24.5870 O   0  0  0  0  0  0  0  0  0  0  0  0
   -8.3070   -0.9500  -24.3790 C   0  0  0  0  0  0  0  0  0  0  0  0
   -8.6100   -1.8030  -23.1490 C   0  0  1  0  0  0  0  0  0  0  0  0
   -8.2090   -1.0810  -21.8650 C   0  0  0  0  0  0  0  0  0  0  0  0
   -8.7800   -0.0640  -21.4770 O   0  0  0  0  0  0  0  0  0  0  0  0
   -7.1620   -1.6270  -21.2410 N   0  0  0  0  0  0  0  0  0  0  0  0
   -6.4950   -1.0080  -20.1720 C   0  0  0  0  0  0  0  0  0  0  0  0
   -5.3220   -0.2860  -20.4260 C   0  0  0  0  0  0  0  0  0  0  0  0
   -4.7940   -0.1050  -21.8290 C   0  0  0  0  0  0  0  0  0  0  0  0
   -3.6800    0.7790  -21.9000 O   0  0  0  0  0  0  0  0  0  0  0  0
   -6.9800   -1.0740  -18.8710 C   0  0  0  0  0  0  0  0  0  0  0  0
   -6.3640   -0.4950  -17.8400 N   0  0  0  0  0  0  0  0  0  0  0  0
   -5.2350    0.1780  -18.0880 C   0  0  0  0  0  0  0  0  0  0  0  0
   -4.6800    0.3010  -19.3450 C   0  0  0  0  0  0  0  0  0  0  0  0
  2  1  1  0
  3  2  2  0
  4  3  1  0
  5  2  1  0
  6  5  2  0
  7  4  2  0
  7  6  1  0
  8  7  1  0
  9  8  1  0
 10  9  1  0
 10  6  1  0
 10 11  1  1
 12 11  2  0
 13 11  1  0
 14 13  1  0
 15 14  2  0
 16 15  1  0
 17 16  1  0
 18 14  1  0
 19 18  2  0
 20 19  1  0
 21 20  2  0
 21 15  1  0
M  END
$$$$

     RDKit          3D

 16 17  0  0  0  0  0  0  0  0999 V2000
   -6.7860   -5.8650  -21.8010 N   0  0  0  0  0  0  0  0  0  0  0  0
   -7.1790   -3.5580  -22.6390 C   0  0  0  0  0  0  0  0  0  0  0  0
   -5.2680   -6.1920  -20.1680 O   0  0  0  0  0  0  0  0  0  0  0  0
   -7.0600   -5.0370  -22.9850 C   0  0  1  0  0  0  0  0  0  0  0  0
   -7.1180   -5.3890  -28.2130 C   0  0  0  0  0  0  0  0  0  0  0  0
   -8.1100   -5.1790  -27.2460 C   0  0  0  0  0  0  0  0  0  0  0  0
   -7.7880   -5.1330  -25.9220 C   0  0  0  0  0  0  0  0  0  0  0  0
   -6.4470   -5.3000  -25.4760 C   0  0  0  0  0  0  0  0  0  0  0  0
   -6.1590   -5.5020  -20.6700 C   0  0  0  0  0  0  0  0  0  0  0  0
   -6.5780   -4.3280  -19.7960 C   0  0  0  0  0  0  0  0  0  0  0  0
   -6.0420   -5.2700  -24.0940 C   0  0  0  0  0  0  0  0  0  0  0  0
   -4.7140   -5.4440  -23.7860 C   0  0  0  0  0  0  0  0  0  0  0  0
   -3.7410   -5.6450  -24.7820 C   0  0  0  0  0  0  0  0  0  0  0  0
   -4.1000   -5.6780  -26.0870 C   0  0  0  0  0  0  0  0  0  0  0  0
   -5.4490   -5.5080  -26.4760 C   0  0  0  0  0  0  0  0  0  0  0  0
   -5.8230   -5.5480  -27.8410 C   0  0  0  0  0  0  0  0  0  0  0  0
  4  1  1  0
  4  2  1  1
  6  5  2  0
  7  6  1  0
  8  7  2  0
  9  1  1  0
  9  3  2  0
 10  9  1  0
 11  8  1  0
 11  4  1  0
 12 11  2  0
 13 12  1  0
 14 13  2  0
 15  8  1  0
 15 14  1  0
 16  5  1  0
 16 15  2  0
M  END
$$$$

     RDKit          3D

 34 37  0  0  0  0  0  0  0  0999 V2000
  -13.8620   -2.8260  -21.4710 Cl  0  0  0  0  0  0  0  0  0  0  0  0
  -12.7360   -2.0070  -22.5210 C   0  0  0  0  0  0  0  0  0  0  0  0
  -11.3970   -2.3480  -22.4740 C   0  0  0  0  0  0  0  0  0  0  0  0
  -13.1980   -1.0160  -23.3530 C   0  0  0  0  0  0  0  0  0  0  0  0
  -12.3020   -0.3640  -24.1790 C   0  0  0  0  0  0  0  0  0  0  0  0
  -10.9420   -0.6660  -24.1510 C   0  0  0  0  0  0  0  0  0  0  0  0
  -10.0420    0.0920  -25.1000 C   0  0  0  0  0  0  0  0  0  0  0  0
   -8.6120   -0.1570  -24.8700 N   0  0  0  0  0  0  0  0  0  0  0  0
   -7.4420    0.8540  -25.2740 S   0  0  1  0  0  0  0  0  0  0  0  0
   -6.2220    0.3600  -24.7360 O   0  0  0  0  0  0  0  0  0  0  0  0
   -7.5770    1.0990  -26.6680 O   0  0  0  0  0  0  0  0  0  0  0  0
   -7.8600    2.1890  -24.4880 N   0  0  0  0  0  0  0  0  0  0  0  0
   -8.4170    3.2980  -25.2710 C   0  0  0  0  0  0  0  0  0  0  0  0
   -7.2560    2.4590  -23.1650 C   0  0  0  0  0  0  0  0  0  0  0  0
   -6.1290    3.4640  -23.2450 C   0  0  0  0  0  0  0  0  0  0  0  0
   -5.2850    3.4890  -24.1020 O   0  0  0  0  0  0  0  0  0  0  0  0
   -6.2270    4.3630  -22.2620 O   0  0  0  0  0  0  0  0  0  0  0  0
   -5.4810    5.5940  -22.4260 C   0  0  0  0  0  0  0  0  0  0  0  0
  -10.4790   -1.6560  -23.2700 C   0  0  0  0  0  0  0  0  0  0  0  0
   -8.9900   -1.9020  -23.1230 C   0  0  1  0  0  0  0  0  0  0  0  0
   -8.2560   -1.5120  -24.4060 C   0  0  0  0  0  0  0  0  0  0  0  0
   -8.4430   -1.0930  -21.9420 C   0  0  0  0  0  0  0  0  0  0  0  0
   -8.9940   -0.0670  -21.5400 O   0  0  0  0  0  0  0  0  0  0  0  0
   -7.3030   -1.5940  -21.3880 N   0  0  0  0  0  0  0  0  0  0  0  0
   -6.5740   -1.0870  -20.2770 C   0  0  0  0  0  0  0  0  0  0  0  0
   -5.4330   -0.2550  -20.5160 C   0  0  0  0  0  0  0  0  0  0  0  0
   -4.8640   -0.0440  -21.7990 C   0  0  0  0  0  0  0  0  0  0  0  0
   -3.7610    0.7480  -21.9590 C   0  0  0  0  0  0  0  0  0  0  0  0
   -3.1780    1.3790  -20.8670 C   0  0  0  0  0  0  0  0  0  0  0  0
   -3.6860    1.2090  -19.6110 C   0  0  0  0  0  0  0  0  0  0  0  0
   -4.8140    0.3790  -19.3970 C   0  0  0  0  0  0  0  0  0  0  0  0
   -5.3450    0.1140  -18.1100 C   0  0  0  0  0  0  0  0  0  0  0  0
   -6.3750   -0.6900  -17.8820 N   0  0  0  0  0  0  0  0  0  0  0  0
   -6.9590   -1.2660  -18.9450 C   0  0  0  0  0  0  0  0  0  0  0  0
  2  1  1  0
  3  2  2  0
  4  2  1  0
  5  4  2  0
  6  5  1  0
  7  6  1  0
  8  7  1  0
  9  8  1  0
 10  9  2  0
 11  9  2  0
  9 12  1  1
 13 12  1  0
 14 12  1  0
 15 14  1  0
 16 15  2  0
 17 15  1  0
 18 17  1  0
 19  6  2  0
 19  3  1  0
 20 19  1  0
 21 20  1  0
 21  8  1  0
 20 22  1  1
 23 22  2  0
 24 22  1  0
 25 24  1  0
 26 25  1  0
 27 26  2  0
 28 27  1  0
 29 28  2  0
 30 29  1  0
 31 30  2  0
 31 26  1  0
 32 31  1  0
 33 32  2  0
 34 33  1  0
 34 25  2  0
M  END
$$$$

     RDKit          3D

 24 27  0  0  0  0  0  0  0  0999 V2000
  -13.8770   -2.7550  -21.3710 Cl  0  0  0  0  0  0  0  0  0  0  0  0
  -12.8660   -1.9200  -22.5200 C   0  0  0  0  0  0  0  0  0  0  0  0
  -13.4570   -1.1140  -23.4750 C   0  0  0  0  0  0  0  0  0  0  0  0
  -12.6430   -0.4530  -24.3830 C   0  0  0  0  0  0  0  0  0  0  0  0
  -11.2610   -0.5760  -24.3010 C   0  0  0  0  0  0  0  0  0  0  0  0
  -11.4910   -2.0610  -22.4300 C   0  0  0  0  0  0  0  0  0  0  0  0
  -10.6730   -1.3620  -23.3110 C   0  0  0  0  0  0  0  0  0  0  0  0
   -9.1540   -1.3950  -23.1190 C   0  0  1  0  0  0  0  0  0  0  0  0
   -8.4590   -0.7970  -24.2100 O   0  0  0  0  0  0  0  0  0  0  0  0
   -8.7130   -0.6340  -21.8550 C   0  0  0  0  0  0  0  0  0  0  0  0
   -9.2100    0.3940  -21.4320 O   0  0  0  0  0  0  0  0  0  0  0  0
   -7.6250   -1.2690  -21.3350 N   0  0  0  0  0  0  0  0  0  0  0  0
   -7.3430   -2.5530  -22.0010 C   0  0  0  0  0  0  0  0  0  0  0  0
   -8.5910   -2.8030  -22.8440 C   0  0  0  0  0  0  0  0  0  0  0  0
   -6.7950   -0.7590  -20.2840 C   0  0  0  0  0  0  0  0  0  0  0  0
   -5.7120    0.1240  -20.5860 C   0  0  0  0  0  0  0  0  0  0  0  0
   -5.3610    0.5330  -21.9020 C   0  0  0  0  0  0  0  0  0  0  0  0
   -4.3100    1.3810  -22.1200 C   0  0  0  0  0  0  0  0  0  0  0  0
   -3.5570    1.8660  -21.0550 C   0  0  0  0  0  0  0  0  0  0  0  0
   -3.8590    1.5080  -19.7710 C   0  0  0  0  0  0  0  0  0  0  0  0
   -4.9410    0.6330  -19.5000 C   0  0  0  0  0  0  0  0  0  0  0  0
   -5.3070    0.2380  -18.1890 C   0  0  0  0  0  0  0  0  0  0  0  0
   -6.3170   -0.5770  -17.9100 N   0  0  0  0  0  0  0  0  0  0  0  0
   -7.0280   -1.0560  -18.9460 C   0  0  0  0  0  0  0  0  0  0  0  0
  2  1  1  0
  3  2  2  0
  4  3  1  0
  5  4  2  0
  6  2  1  0
  7  6  2  0
  7  5  1  0
  8  7  1  0
  8  9  1  6
 10  8  1  0
 11 10  2  0
 12 10  1  0
 13 12  1  0
 14 13  1  0
 14  8  1  0
 15 12  1  0
 16 15  1  0
 17 16  2  0
 18 17  1  0
 19 18  2  0
 20 19  1  0
 21 16  1  0
 21 20  2  0
 22 21  1  0
 23 22  2  0
 24 23  1  0
 24 15  2  0
M  END
$$$$

     RDKit          3D

 20 21  0  0  0  0  0  0  0  0999 V2000
   -6.3130   -0.4960  -17.5300 N   0  0  0  0  0  0  0  0  0  0  0  0
   -5.3220   -0.3250  -20.1140 C   0  0  0  0  0  0  0  0  0  0  0  0
  -12.7360   -1.1820  -23.5550 C   0  0  0  0  0  0  0  0  0  0  0  0
   -8.5880   -0.0060  -21.3650 O   0  0  0  0  0  0  0  0  0  0  0  0
   -9.9950   -1.6470  -23.2770 C   0  0  0  0  0  0  0  0  0  0  0  0
   -4.6820    0.3460  -19.0820 C   0  0  0  0  0  0  0  0  0  0  0  0
   -8.0620   -1.0650  -21.6990 C   0  0  0  0  0  0  0  0  0  0  0  0
   -6.4710   -1.0990  -19.8530 C   0  0  0  0  0  0  0  0  0  0  0  0
   -6.9100   -1.1450  -18.5340 C   0  0  0  0  0  0  0  0  0  0  0  0
  -11.8260   -0.4960  -24.3440 C   0  0  0  0  0  0  0  0  0  0  0  0
  -10.9060   -2.3610  -22.5080 C   0  0  0  0  0  0  0  0  0  0  0  0
  -10.4660   -0.7370  -24.2130 C   0  0  0  0  0  0  0  0  0  0  0  0
  -12.2570   -2.1280  -22.6690 C   0  0  0  0  0  0  0  0  0  0  0  0
   -3.7860    0.4780  -21.7720 C   0  0  0  0  0  0  0  0  0  0  0  0
   -7.1120   -1.6890  -20.9640 N   0  0  0  0  0  0  0  0  0  0  0  0
   -4.9540   -0.2740  -21.4300 O   0  0  0  0  0  0  0  0  0  0  0  0
   -7.9510   -3.0500  -23.1470 O   0  0  0  0  0  0  0  0  0  0  0  0
   -8.5110   -1.7530  -22.9850 C   0  0  1  0  0  0  0  0  0  0  0  0
  -13.4920   -3.2250  -21.7330 Br  0  0  0  0  0  0  0  0  0  0  0  0
   -5.2230    0.2280  -17.8170 C   0  0  0  0  0  0  0  0  0  0  0  0
  6  2  1  0
  7  4  2  0
  8  2  2  0
  9  8  1  0
  9  1  2  0
 10  3  2  0
 11  5  1  0
 12 10  1  0
 12  5  2  0
 13 11  2  0
 13  3  1  0
 15  8  1  0
 15  7  1  0
 16 14  1  0
 16  2  1  0
 18 17  1  1
 18  5  1  0
 18  7  1  0
 19 13  1  0
 20  1  1  0
 20  6  2  0
M  END
$$$$

     RDKit          3D

 24 26  0  0  0  0  0  0  0  0999 V2000
  -13.8170   -2.7860  -21.8010 Cl  0  0  0  0  0  0  0  0  0  0  0  0
  -12.5150   -1.9840  -22.6270 C   0  0  0  0  0  0  0  0  0  0  0  0
  -12.7660   -0.9660  -23.5410 C   0  0  0  0  0  0  0  0  0  0  0  0
  -14.3850   -0.4510  -23.8910 Cl  0  0  0  0  0  0  0  0  0  0  0  0
  -11.7120   -0.3190  -24.1580 C   0  0  0  0  0  0  0  0  0  0  0  0
  -10.4120   -0.6810  -23.8620 C   0  0  0  0  0  0  0  0  0  0  0  0
  -11.2160   -2.3520  -22.3280 C   0  0  0  0  0  0  0  0  0  0  0  0
  -10.1550   -1.6910  -22.9390 C   0  0  0  0  0  0  0  0  0  0  0  0
   -8.7370   -2.0600  -22.5900 C   0  0  1  0  0  0  0  0  0  0  0  0
   -8.6930   -3.3580  -22.1700 F   0  0  0  0  0  0  0  0  0  0  0  0
   -7.9590   -2.0100  -23.7090 F   0  0  0  0  0  0  0  0  0  0  0  0
   -8.1570   -1.1120  -21.5080 C   0  0  0  0  0  0  0  0  0  0  0  0
   -8.4940    0.0640  -21.4090 O   0  0  0  0  0  0  0  0  0  0  0  0
   -7.3420   -1.6920  -20.6100 N   0  0  0  0  0  0  0  0  0  0  0  0
   -6.3270   -1.2130  -19.7720 C   0  0  0  0  0  0  0  0  0  0  0  0
   -5.3240   -0.2940  -20.2270 C   0  0  0  0  0  0  0  0  0  0  0  0
   -4.9060   -0.1830  -21.5790 C   0  0  0  0  0  0  0  0  0  0  0  0
   -3.8590    0.6280  -21.9310 C   0  0  0  0  0  0  0  0  0  0  0  0
   -3.1900    1.3750  -20.9740 C   0  0  0  0  0  0  0  0  0  0  0  0
   -3.5580    1.3140  -19.6610 C   0  0  0  0  0  0  0  0  0  0  0  0
   -4.6260    0.4720  -19.2520 C   0  0  0  0  0  0  0  0  0  0  0  0
   -4.9900    0.2980  -17.8980 C   0  0  0  0  0  0  0  0  0  0  0  0
   -5.9060   -0.5570  -17.4770 N   0  0  0  0  0  0  0  0  0  0  0  0
   -6.5240   -1.2990  -18.3970 C   0  0  0  0  0  0  0  0  0  0  0  0
  2  1  1  0
  3  2  2  0
  4  3  1  0
  5  3  1  0
  6  5  2  0
  7  2  1  0
  8  7  2  0
  8  6  1  0
  9  8  1  0
  9 10  1  1
 11  9  1  0
 12  9  1  0
 13 12  2  0
 14 12  1  0
 15 14  1  0
 16 15  1  0
 17 16  2  0
 18 17  1  0
 19 18  2  0
 20 19  1  0
 21 20  2  0
 21 16  1  0
 22 21  1  0
 23 22  2  0
 24 23  1  0
 24 15  2  0
M  END
$$$$

     RDKit          3D

 23 24  0  0  0  0  0  0  0  0999 V2000
   -8.5740   -0.4460  -21.1880 O   0  0  0  0  0  0  0  0  0  0  0  0
   -7.9080   -1.4350  -21.4870 C   0  0  0  0  0  0  0  0  0  0  0  0
   -6.7040   -1.7120  -20.9520 N   0  0  0  0  0  0  0  0  0  0  0  0
   -6.1150   -0.9790  -19.8930 C   0  0  0  0  0  0  0  0  0  0  0  0
   -5.0150   -0.1490  -20.1500 C   0  0  0  0  0  0  0  0  0  0  0  0
   -4.4520    0.0230  -21.5390 C   0  0  0  0  0  0  0  0  0  0  0  0
   -4.5010    0.5790  -19.0800 C   0  0  0  0  0  0  0  0  0  0  0  0
   -5.0880    0.4700  -17.8370 C   0  0  0  0  0  0  0  0  0  0  0  0
   -6.1430   -0.3110  -17.5810 N   0  0  0  0  0  0  0  0  0  0  0  0
   -6.6380   -1.0220  -18.6010 C   0  0  0  0  0  0  0  0  0  0  0  0
   -8.3960   -2.4610  -22.4920 C   0  0  0  0  0  0  0  0  0  0  0  0
   -9.7650   -2.0750  -23.0020 C   0  0  0  0  0  0  0  0  0  0  0  0
  -10.9100   -2.6040  -22.4190 C   0  0  0  0  0  0  0  0  0  0  0  0
  -12.1520   -2.1650  -22.8210 C   0  0  0  0  0  0  0  0  0  0  0  0
  -13.5730   -2.8400  -22.0620 Cl  0  0  0  0  0  0  0  0  0  0  0  0
  -12.2960   -1.2210  -23.8190 C   0  0  0  0  0  0  0  0  0  0  0  0
  -11.1650   -0.7170  -24.4410 C   0  0  0  0  0  0  0  0  0  0  0  0
   -9.9080   -1.1250  -24.0130 C   0  0  0  0  0  0  0  0  0  0  0  0
   -8.7390   -0.5400  -24.4280 O   0  0  0  0  0  0  0  0  0  0  0  0
   -8.3750   -0.6160  -25.8170 C   0  0  0  0  0  0  0  0  0  0  0  0
   -6.8860   -0.3860  -25.9170 C   0  0  0  0  0  0  0  0  0  0  0  0
   -6.0560   -1.4910  -25.2610 C   0  0  0  0  0  0  0  0  0  0  0  0
   -4.5630   -1.2860  -25.3830 C   0  0  0  0  0  0  0  0  0  0  0  0
  2  1  2  0
  3  2  1  0
  4  3  1  0
  5  4  2  0
  6  5  1  0
  7  5  1  0
  8  7  2  0
  9  8  1  0
 10  9  2  0
 10  4  1  0
 11  2  1  0
 12 11  1  0
 13 12  2  0
 14 13  1  0
 15 14  1  0
 16 14  2  0
 17 16  1  0
 18 17  2  0
 18 12  1  0
 19 18  1  0
 20 19  1  0
 21 20  1  0
 22 21  1  0
 23 22  1  0
M  END
$$$$

     RDKit          3D

 13 14  0  0  0  0  0  0  0  0999 V2000
   -7.2020   21.7550    3.3040 F   0  0  0  0  0  0  0  0  0  0  0  0
   -7.0730   21.9890    1.9700 C   0  0  0  0  0  0  0  0  0  0  0  0
   -6.1100   21.2900    1.2740 C   0  0  0  0  0  0  0  0  0  0  0  0
   -5.9560   21.5370   -0.0800 C   0  0  0  0  0  0  0  0  0  0  0  0
   -7.9060   22.9250    1.4020 C   0  0  0  0  0  0  0  0  0  0  0  0
   -7.7630   23.1770    0.0400 C   0  0  0  0  0  0  0  0  0  0  0  0
   -6.7850   22.4730   -0.6850 C   0  0  0  0  0  0  0  0  0  0  0  0
   -6.8730   22.8760   -1.9950 N   0  0  0  0  0  0  0  0  0  0  0  0
   -7.8730   23.8030   -2.1090 C   0  0  0  0  0  0  0  0  0  0  0  0
   -8.4560   24.0200   -0.8940 C   0  0  0  0  0  0  0  0  0  0  0  0
   -9.6330   24.9140   -0.5900 C   0  0  0  0  0  0  0  0  0  0  0  0
  -10.8890   24.2690   -0.9920 N   0  0  0  0  0  0  0  0  0  0  0  0
  -11.0290   22.9190   -0.4460 C   0  0  0  0  0  0  0  0  0  0  0  0
  2  1  1  0
  3  2  2  0
  4  3  1  0
  5  2  1  0
  6  5  2  0
  7  4  2  0
  7  6  1  0
  8  7  1  0
  9  8  1  0
 10  9  2  0
 10  6  1  0
 11 10  1  0
 12 11  1  0
 13 12  1  0
M  CHG  1  12   1
M  END
$$$$

     RDKit          3D

 37 42  0  0  0  0  0  0  0  0999 V2000
   -9.1680    6.1490  -23.0160 N   0  0  0  0  0  0  0  0  0  0  0  0
   -8.4700    5.2490  -23.0400 C   0  0  0  0  0  0  0  0  0  0  0  0
   -7.5740    4.0840  -23.0120 C   0  0  1  0  0  0  0  0  0  0  0  0
   -6.1900    4.3020  -23.5880 C   0  0  0  0  0  0  0  0  0  0  0  0
   -6.3620    4.2380  -22.1170 C   0  0  0  0  0  0  0  0  0  0  0  0
   -8.3050    2.7400  -23.1210 C   0  0  0  0  0  0  0  0  0  0  0  0
   -8.5750    1.9840  -24.7160 S   0  0  2  0  0  0  0  0  0  0  0  0
   -7.3220    1.4910  -25.1900 O   0  0  0  0  0  0  0  0  0  0  0  0
   -9.3120    2.9030  -25.5230 O   0  0  0  0  0  0  0  0  0  0  0  0
   -9.5370    0.6930  -24.4590 N   0  0  0  0  0  0  0  0  0  0  0  0
   -9.0010   -0.6650  -24.2640 C   0  0  0  0  0  0  0  0  0  0  0  0
  -10.9590    0.6970  -24.8290 C   0  0  0  0  0  0  0  0  0  0  0  0
  -11.7830   -0.1200  -23.8480 C   0  0  0  0  0  0  0  0  0  0  0  0
  -11.1950   -1.0550  -22.9800 C   0  0  0  0  0  0  0  0  0  0  0  0
  -11.9990   -1.7670  -22.0840 C   0  0  0  0  0  0  0  0  0  0  0  0
  -13.3610   -1.5320  -22.0540 C   0  0  0  0  0  0  0  0  0  0  0  0
  -14.3480   -2.4110  -20.9080 Cl  0  0  0  0  0  0  0  0  0  0  0  0
  -13.9530   -0.6180  -22.8950 C   0  0  0  0  0  0  0  0  0  0  0  0
  -13.1640    0.0770  -23.7930 C   0  0  0  0  0  0  0  0  0  0  0  0
   -9.6830   -1.2730  -23.0130 C   0  0  1  0  0  0  0  0  0  0  0  0
   -9.1930   -2.7250  -22.7190 C   0  0  1  0  0  0  0  0  0  0  0  0
   -9.1880   -3.6850  -23.9080 C   0  0  0  0  0  0  0  0  0  0  0  0
  -10.5850   -4.1030  -24.3330 C   0  0  0  0  0  0  0  0  0  0  0  0
   -9.0640   -0.5160  -21.8310 C   0  0  0  0  0  0  0  0  0  0  0  0
   -9.4540    0.5370  -21.3700 O   0  0  0  0  0  0  0  0  0  0  0  0
   -7.9720   -1.2120  -21.4050 N   0  0  0  0  0  0  0  0  0  0  0  0
   -7.8230   -2.5010  -22.0930 C   0  0  0  0  0  0  0  0  0  0  0  0
   -7.0660   -0.7930  -20.3700 C   0  0  0  0  0  0  0  0  0  0  0  0
   -5.9170    0.0100  -20.6400 C   0  0  0  0  0  0  0  0  0  0  0  0
   -5.5050    0.4000  -21.9440 C   0  0  0  0  0  0  0  0  0  0  0  0
   -4.3950    1.1740  -22.1290 C   0  0  0  0  0  0  0  0  0  0  0  0
   -3.6440    1.6110  -21.0440 C   0  0  0  0  0  0  0  0  0  0  0  0
   -3.9990    1.2670  -19.7690 C   0  0  0  0  0  0  0  0  0  0  0  0
   -5.1370    0.4550  -19.5310 C   0  0  0  0  0  0  0  0  0  0  0  0
   -5.5500    0.0610  -18.2290 C   0  0  0  0  0  0  0  0  0  0  0  0
   -6.6170   -0.6860  -17.9830 N   0  0  0  0  0  0  0  0  0  0  0  0
   -7.3400   -1.0940  -19.0390 C   0  0  0  0  0  0  0  0  0  0  0  0
  2  1  3  0
  3  2  1  1
  4  3  1  0
  5  4  1  0
  5  3  1  0
  6  3  1  0
  7  6  1  1
  8  7  2  0
  9  7  2  0
 10  7  1  0
 11 10  1  0
 12 10  1  0
 13 12  1  0
 14 13  2  0
 15 14  1  0
 16 15  2  0
 17 16  1  0
 18 16  1  0
 19 18  2  0
 19 13  1  0
 20 14  1  0
 20 11  1  6
 21 20  1  0
 21 22  1  6
 23 22  1  0
 24 20  1  0
 25 24  2  0
 26 24  1  0
 27 21  1  0
 27 26  1  0
 28 26  1  0
 29 28  1  0
 30 29  2  0
 31 30  1  0
 32 31  2  0
 33 32  1  0
 34 29  1  0
 34 33  2  0
 35 34  1  0
 36 35  2  0
 37 36  1  0
 37 28  2  0
M  END
$$$$

     RDKit          3D

 28 31  0  0  0  0  0  0  0  0999 V2000
   -9.4030    0.0920  -21.4690 O   0  0  0  0  0  0  0  0  0  0  0  0
   -8.9300   -0.9410  -21.9220 C   0  0  0  0  0  0  0  0  0  0  0  0
   -9.6340   -1.6950  -23.0870 C   0  0  1  0  0  0  0  0  0  0  0  0
  -11.1610   -1.4580  -23.1230 C   0  0  0  0  0  0  0  0  0  0  0  0
  -11.9890   -2.2360  -22.3150 C   0  0  0  0  0  0  0  0  0  0  0  0
  -13.3150   -1.8760  -22.1380 C   0  0  0  0  0  0  0  0  0  0  0  0
  -14.2270   -2.6440  -20.8740 Cl  0  0  0  0  0  0  0  0  0  0  0  0
  -13.8800   -0.8190  -22.8180 C   0  0  0  0  0  0  0  0  0  0  0  0
  -13.0980   -0.0810  -23.6840 C   0  0  0  0  0  0  0  0  0  0  0  0
  -11.7550   -0.3960  -23.8260 C   0  0  0  0  0  0  0  0  0  0  0  0
  -10.8240    0.5400  -24.9810 S   0  0  2  0  0  0  0  0  0  0  0  0
  -11.1810    1.9240  -24.8690 O   0  0  0  0  0  0  0  0  0  0  0  0
  -10.9080   -0.0910  -26.2660 O   0  0  0  0  0  0  0  0  0  0  0  0
   -9.3020    0.3600  -24.4270 N   0  0  0  0  0  0  0  0  0  0  0  0
   -8.8940   -1.0450  -24.2750 C   0  0  0  0  0  0  0  0  0  0  0  0
   -9.3570   -3.2170  -23.0020 C   0  0  0  0  0  0  0  0  0  0  0  0
   -9.6630   -4.0110  -24.2610 C   0  0  0  0  0  0  0  0  0  0  0  0
   -7.7890   -1.4930  -21.4350 N   0  0  0  0  0  0  0  0  0  0  0  0
   -7.0040   -1.0920  -20.3280 C   0  0  0  0  0  0  0  0  0  0  0  0
   -5.8480   -0.2830  -20.5560 C   0  0  0  0  0  0  0  0  0  0  0  0
   -5.3410    0.0210  -21.8450 C   0  0  0  0  0  0  0  0  0  0  0  0
   -4.2140    0.7790  -21.9950 C   0  0  0  0  0  0  0  0  0  0  0  0
   -3.5520    1.2870  -20.8900 C   0  0  0  0  0  0  0  0  0  0  0  0
   -4.0010    1.0260  -19.6290 C   0  0  0  0  0  0  0  0  0  0  0  0
   -5.1440    0.2170  -19.4240 C   0  0  0  0  0  0  0  0  0  0  0  0
   -5.6020   -0.1620  -18.1430 C   0  0  0  0  0  0  0  0  0  0  0  0
   -6.6400   -0.9530  -17.9300 N   0  0  0  0  0  0  0  0  0  0  0  0
   -7.3150   -1.3920  -19.0010 C   0  0  0  0  0  0  0  0  0  0  0  0
  2  1  2  0
  3  2  1  0
  4  3  1  0
  5  4  2  0
  6  5  1  0
  7  6  1  0
  8  6  2  0
  9  8  1  0
 10  9  2  0
 10  4  1  0
 11 10  1  0
 12 11  2  0
 13 11  2  0
 11 14  1  1
 15 14  1  0
 15  3  1  0
  3 16  1  1
 17 16  1  0
 18  2  1  0
 19 18  1  0
 20 19  1  0
 21 20  2  0
 22 21  1  0
 23 22  2  0
 24 23  1  0
 25 20  1  0
 25 24  2  0
 26 25  1  0
 27 26  2  0
 28 27  1  0
 28 19  2  0
M  END
$$$$

     RDKit          3D

 26 29  0  0  0  0  0  0  0  0999 V2000
   -9.4660   -0.5280  -21.1880 O   0  0  0  0  0  0  0  0  0  0  0  0
   -8.6450   -1.1660  -21.8330 C   0  0  0  0  0  0  0  0  0  0  0  0
   -9.0560   -1.9640  -23.0790 C   0  0  1  0  0  0  0  0  0  0  0  0
  -10.5440   -1.6740  -23.1490 C   0  0  0  0  0  0  0  0  0  0  0  0
  -11.4050   -2.3260  -22.2740 C   0  0  0  0  0  0  0  0  0  0  0  0
  -12.7390   -1.9880  -22.2630 C   0  0  0  0  0  0  0  0  0  0  0  0
  -13.8130   -2.8730  -21.2240 Cl  0  0  0  0  0  0  0  0  0  0  0  0
  -13.2520   -1.0060  -23.0840 C   0  0  0  0  0  0  0  0  0  0  0  0
  -12.4080   -0.3470  -23.9610 C   0  0  0  0  0  0  0  0  0  0  0  0
  -11.0700   -0.6980  -24.0000 C   0  0  0  0  0  0  0  0  0  0  0  0
  -10.3190   -0.0740  -24.9710 O   0  0  0  0  0  0  0  0  0  0  0  0
   -8.8990   -0.0410  -24.7250 C   0  0  0  0  0  0  0  0  0  0  0  0
   -8.3550   -1.4000  -24.3380 C   0  0  0  0  0  0  0  0  0  0  0  0
   -8.7950   -3.4810  -22.9820 C   0  0  0  0  0  0  0  0  0  0  0  0
   -7.3700   -3.8090  -22.9510 N   0  0  0  0  0  0  0  0  0  0  0  0
   -7.3390   -0.9990  -21.6220 N   0  0  0  0  0  0  0  0  0  0  0  0
   -6.6270   -0.7360  -20.4430 C   0  0  0  0  0  0  0  0  0  0  0  0
   -5.2980   -0.2590  -20.6120 C   0  0  0  0  0  0  0  0  0  0  0  0
   -4.6820   -0.0910  -21.8800 C   0  0  0  0  0  0  0  0  0  0  0  0
   -3.4680    0.5210  -21.9940 C   0  0  0  0  0  0  0  0  0  0  0  0
   -2.8210    1.0160  -20.8740 C   0  0  0  0  0  0  0  0  0  0  0  0
   -3.3700    0.8710  -19.6320 C   0  0  0  0  0  0  0  0  0  0  0  0
   -4.6060    0.2030  -19.4610 C   0  0  0  0  0  0  0  0  0  0  0  0
   -5.2370    0.0290  -18.2000 C   0  0  0  0  0  0  0  0  0  0  0  0
   -6.4410   -0.5150  -18.0350 N   0  0  0  0  0  0  0  0  0  0  0  0
   -7.1150   -0.8660  -19.1390 C   0  0  0  0  0  0  0  0  0  0  0  0
  2  1  2  0
  3  2  1  0
  4  3  1  0
  5  4  2  0
  6  5  1  0
  7  6  1  0
  8  6  2  0
  9  8  1  0
 10  9  2  0
 10  4  1  0
 11 10  1  0
 12 11  1  0
 13 12  1  0
 13  3  1  0
  3 14  1  1
 15 14  1  0
 16  2  1  0
 17 16  1  0
 18 17  1  0
 19 18  2  0
 20 19  1  0
 21 20  2  0
 22 21  1  0
 23 22  2  0
 23 18  1  0
 24 23  1  0
 25 24  2  0
 26 25  1  0
 26 17  2  0
M  CHG  1  15   1
M  END
$$$$

     RDKit          3D

 32 35  0  0  0  0  0  0  0  0999 V2000
   -6.8730   -1.2000  -25.2290 O   0  0  0  0  0  0  0  0  0  0  0  0
   -7.6620   -2.0550  -25.5660 C   0  0  0  0  0  0  0  0  0  0  0  0
   -8.6750   -2.4650  -24.7900 N   0  0  0  0  0  0  0  0  0  0  0  0
   -7.5850   -2.6840  -26.9430 C   0  0  0  0  0  0  0  0  0  0  0  0
   -6.2270   -3.1770  -28.9490 N   0  0  0  0  0  0  0  0  0  0  0  0
   -5.9740   -5.2440  -20.0000 O   0  0  0  0  0  0  0  0  0  0  0  0
   -6.9100   -4.6030  -20.4050 C   0  0  0  0  0  0  0  0  0  0  0  0
   -6.9010   -3.0740  -20.4880 C   0  0  2  0  0  0  0  0  0  0  0  0
   -6.7880   -2.4780  -19.1010 C   0  0  0  0  0  0  0  0  0  0  0  0
   -5.9800   -1.2290  -18.9560 C   0  0  0  0  0  0  0  0  0  0  0  0
   -5.8220   -0.5800  -17.8050 N   0  0  0  0  0  0  0  0  0  0  0  0
   -5.0230    0.4680  -18.0110 C   0  0  0  0  0  0  0  0  0  0  0  0
   -4.6720    0.4950  -19.2970 N   0  0  0  0  0  0  0  0  0  0  0  0
   -5.2570   -0.5570  -19.8980 C   0  0  0  0  0  0  0  0  0  0  0  0
   -8.1050   -2.5430  -21.1360 N   0  0  0  0  0  0  0  0  0  0  0  0
   -8.1440   -2.9940  -22.5110 C   0  0  0  0  0  0  0  0  0  0  0  0
   -8.7510   -1.9430  -23.4170 C   0  0  2  0  0  0  0  0  0  0  0  0
  -10.1940   -1.5760  -23.0490 C   0  0  0  0  0  0  0  0  0  0  0  0
  -11.2620   -2.5760  -23.4480 C   0  0  1  0  0  0  0  0  0  0  0  0
  -12.6480   -1.9610  -23.2440 C   0  0  0  0  0  0  0  0  0  0  0  0
  -13.7390   -2.9080  -23.6940 C   0  0  0  0  0  0  0  0  0  0  0  0
  -13.5250   -3.4830  -25.0960 C   0  0  0  0  0  0  0  0  0  0  0  0
  -12.1100   -3.9890  -25.2920 C   0  0  0  0  0  0  0  0  0  0  0  0
  -11.0940   -2.9290  -24.8930 C   0  0  2  0  0  0  0  0  0  0  0  0
   -9.6950   -3.4340  -25.1910 C   0  0  0  0  0  0  0  0  0  0  0  0
   -6.2930   -2.4300  -27.7050 C   0  0  0  0  0  0  0  0  0  0  0  0
   -6.5410   -4.4910  -29.0460 C   0  0  0  0  0  0  0  0  0  0  0  0
   -6.4230   -5.3620  -27.9540 C   0  0  0  0  0  0  0  0  0  0  0  0
   -6.7850   -6.7080  -28.0750 C   0  0  0  0  0  0  0  0  0  0  0  0
   -7.2490   -7.1690  -29.3020 C   0  0  0  0  0  0  0  0  0  0  0  0
   -7.3470   -6.3180  -30.3780 C   0  0  0  0  0  0  0  0  0  0  0  0
   -7.0070   -4.9850  -30.2420 C   0  0  0  0  0  0  0  0  0  0  0  0
  2  1  2  0
  3  2  1  0
  4  2  1  0
  7  6  2  0
  8  7  1  0
  8  9  1  1
 10  9  1  0
 11 10  1  0
 12 11  1  0
 13 12  2  0
 14 10  2  0
 14 13  1  0
 15  8  1  0
 16 15  1  0
 17 16  1  1
 17  3  1  0
 18 17  1  0
 19 18  1  6
 20 19  1  0
 21 20  1  0
 22 21  1  0
 23 22  1  0
 24 23  1  1
 24 19  1  0
 25 24  1  0
 25  3  1  0
 26  5  1  0
 26  4  1  0
 27  5  1  0
 28 27  2  0
 29 28  1  0
 30 29  2  0
 31 30  1  0
 32 31  2  0
 32 27  1  0
M  CHG  1  15   1
M  END
$$$$

     RDKit          3D

 32 36  0  0  0  0  0  0  0  0999 V2000
   -8.9350    0.2640  -21.4390 O   0  0  0  0  0  0  0  0  0  0  0  0
   -8.4400   -0.7750  -21.8440 C   0  0  0  0  0  0  0  0  0  0  0  0
   -7.3670   -1.4480  -21.2730 N   0  0  0  0  0  0  0  0  0  0  0  0
   -6.6020   -0.9650  -20.1260 C   0  0  0  0  0  0  0  0  0  0  0  0
   -5.4900   -0.0940  -20.3480 C   0  0  0  0  0  0  0  0  0  0  0  0
   -4.9610    0.2220  -21.6270 C   0  0  0  0  0  0  0  0  0  0  0  0
   -3.9130    1.0860  -21.7600 C   0  0  0  0  0  0  0  0  0  0  0  0
   -3.3370    1.6820  -20.6430 C   0  0  0  0  0  0  0  0  0  0  0  0
   -3.8010    1.3980  -19.3890 C   0  0  0  0  0  0  0  0  0  0  0  0
   -4.8800    0.5000  -19.2040 C   0  0  0  0  0  0  0  0  0  0  0  0
   -5.4100    0.1690  -17.9270 C   0  0  0  0  0  0  0  0  0  0  0  0
   -6.4500   -0.6350  -17.7330 N   0  0  0  0  0  0  0  0  0  0  0  0
   -7.0260   -1.1730  -18.8190 C   0  0  0  0  0  0  0  0  0  0  0  0
   -7.1740   -2.7300  -21.8160 C   0  0  0  0  0  0  0  0  0  0  0  0
   -6.2520   -3.4650  -21.5530 O   0  0  0  0  0  0  0  0  0  0  0  0
   -8.3130   -2.9810  -22.7770 C   0  0  0  0  0  0  0  0  0  0  0  0
   -8.8950   -1.5830  -23.0660 C   0  0  1  0  0  0  0  0  0  0  0  0
  -10.4210   -1.5230  -23.1960 C   0  0  0  0  0  0  0  0  0  0  0  0
  -11.2550   -2.3370  -22.4240 C   0  0  0  0  0  0  0  0  0  0  0  0
  -12.6140   -2.0910  -22.4160 C   0  0  0  0  0  0  0  0  0  0  0  0
  -13.6380   -3.0340  -21.3680 Cl  0  0  0  0  0  0  0  0  0  0  0  0
  -13.1780   -1.0910  -23.1690 C   0  0  0  0  0  0  0  0  0  0  0  0
  -12.3600   -0.3180  -23.9720 C   0  0  0  0  0  0  0  0  0  0  0  0
  -10.9870   -0.5200  -24.0020 C   0  0  0  0  0  0  0  0  0  0  0  0
  -10.1480    0.3400  -24.9200 C   0  0  0  0  0  0  0  0  0  0  0  0
   -8.2020   -0.9240  -24.2900 C   0  0  0  0  0  0  0  0  0  0  0  0
   -8.7440    0.4180  -24.4920 N   0  0  1  0  0  0  0  0  0  0  0  0
   -7.9630    1.3120  -25.3430 C   0  0  0  0  0  0  0  0  0  0  0  0
   -7.1700    2.3600  -24.5800 C   0  0  0  0  0  0  0  0  0  0  0  0
   -6.1620    2.8620  -25.0720 O   0  0  0  0  0  0  0  0  0  0  0  0
   -7.6070    2.6820  -23.3660 N   0  0  0  0  0  0  0  0  0  0  0  0
   -6.8620    3.5560  -22.4800 C   0  0  0  0  0  0  0  0  0  0  0  0
  2  1  2  0
  3  2  1  0
  4  3  1  0
  5  4  1  0
  6  5  2  0
  7  6  1  0
  8  7  2  0
  9  8  1  0
 10  5  1  0
 10  9  2  0
 11 10  1  0
 12 11  2  0
 13 12  1  0
 13  4  2  0
 14  3  1  0
 15 14  2  0
 16 14  1  0
 17 16  1  1
 17  2  1  0
 18 17  1  0
 19 18  2  0
 20 19  1  0
 21 20  1  0
 22 20  2  0
 23 22  1  0
 24 23  2  0
 24 18  1  0
 25 24  1  0
 26 17  1  0
 27 26  1  0
 27 25  1  0
 27 28  1  6
 29 28  1  0
 30 29  2  0
 31 29  1  0
 32 31  1  0
M  CHG  1  27   1
M  END
$$$$

     RDKit          3D

 27 29  0  0  0  0  0  0  0  0999 V2000
  -13.8950   -2.8630  -21.7220 Cl  0  0  0  0  0  0  0  0  0  0  0  0
  -12.6000   -2.1340  -22.6300 C   0  0  0  0  0  0  0  0  0  0  0  0
  -12.8980   -1.2040  -23.6080 C   0  0  0  0  0  0  0  0  0  0  0  0
  -11.8580   -0.6650  -24.3520 C   0  0  0  0  0  0  0  0  0  0  0  0
  -10.5470   -1.0320  -24.0870 C   0  0  0  0  0  0  0  0  0  0  0  0
  -11.3000   -2.5140  -22.3620 C   0  0  0  0  0  0  0  0  0  0  0  0
  -10.2530   -1.9430  -23.0780 C   0  0  0  0  0  0  0  0  0  0  0  0
   -8.8240   -2.2500  -22.7000 C   0  0  0  0  0  0  0  0  0  0  0  0
   -8.3080   -1.3040  -21.6340 C   0  0  0  0  0  0  0  0  0  0  0  0
   -8.8840   -0.2510  -21.3600 O   0  0  0  0  0  0  0  0  0  0  0  0
   -7.1800   -1.7110  -21.0230 N   0  0  0  0  0  0  0  0  0  0  0  0
   -6.4820   -1.0490  -19.9940 C   0  0  0  0  0  0  0  0  0  0  0  0
   -6.7670   -1.1900  -18.6340 C   0  0  0  0  0  0  0  0  0  0  0  0
   -6.1410   -0.5340  -17.6480 N   0  0  0  0  0  0  0  0  0  0  0  0
   -5.1810    0.3170  -17.9880 C   0  0  0  0  0  0  0  0  0  0  0  0
   -4.7850    0.5820  -19.3220 C   0  0  0  0  0  0  0  0  0  0  0  0
   -5.4560   -0.1250  -20.3620 C   0  0  0  0  0  0  0  0  0  0  0  0
   -5.1050    0.1630  -21.7060 C   0  0  0  0  0  0  0  0  0  0  0  0
   -4.1440    1.0840  -22.0020 C   0  0  0  0  0  0  0  0  0  0  0  0
   -3.7910    1.5310  -19.6630 C   0  0  0  0  0  0  0  0  0  0  0  0
   -3.4880    1.7650  -20.9820 C   0  0  0  0  0  0  0  0  0  0  0  0
   -2.5440    2.6550  -21.4370 O   0  0  0  0  0  0  0  0  0  0  0  0
   -1.9270    3.5410  -20.4890 C   0  0  0  0  0  0  0  0  0  0  0  0
   -0.9790    4.4680  -21.2240 C   0  0  0  0  0  0  0  0  0  0  0  0
   -1.4920    5.6100  -22.0080 N   0  0  2  0  0  0  0  0  0  0  0  0
   -2.8090    6.0920  -21.5750 C   0  0  0  0  0  0  0  0  0  0  0  0
   -1.5010    5.3190  -23.4410 C   0  0  0  0  0  0  0  0  0  0  0  0
  2  1  1  0
  3  2  2  0
  4  3  1  0
  5  4  2  0
  6  2  1  0
  7  6  2  0
  7  5  1  0
  8  7  1  0
  9  8  1  0
 10  9  2  0
 11  9  1  0
 12 11  1  0
 13 12  2  0
 14 13  1  0
 15 14  2  0
 16 15  1  0
 17 12  1  0
 17 16  2  0
 18 17  1  0
 19 18  2  0
 20 16  1  0
 21 19  1  0
 21 20  2  0
 22 21  1  0
 23 22  1  0
 24 23  1  0
 25 24  1  0
 25 26  1  1
 27 25  1  0
M  CHG  1  25   1
M  END
$$$$

     RDKit          3D

 24 27  0  0  0  0  0  0  0  0999 V2000
   -9.1290   -0.4690  -21.3010 O   0  0  0  0  0  0  0  0  0  0  0  0
   -8.3910   -1.2880  -21.8430 C   0  0  0  0  0  0  0  0  0  0  0  0
   -8.8780   -2.1950  -22.9770 C   0  0  2  0  0  0  0  0  0  0  0  0
   -8.1540   -1.9310  -24.3150 C   0  0  0  0  0  0  0  0  0  0  0  0
   -8.5950   -0.6100  -24.8940 C   0  0  0  0  0  0  0  0  0  0  0  0
  -10.0150   -0.5580  -25.1210 O   0  0  0  0  0  0  0  0  0  0  0  0
  -12.1120   -0.5400  -24.0970 C   0  0  0  0  0  0  0  0  0  0  0  0
  -10.8000   -0.9890  -24.0800 C   0  0  0  0  0  0  0  0  0  0  0  0
  -10.3590   -1.9110  -23.1280 C   0  0  0  0  0  0  0  0  0  0  0  0
  -11.2950   -2.4480  -22.2500 C   0  0  0  0  0  0  0  0  0  0  0  0
  -13.0160   -1.0480  -23.1830 C   0  0  0  0  0  0  0  0  0  0  0  0
  -12.6000   -2.0100  -22.2910 C   0  0  0  0  0  0  0  0  0  0  0  0
  -13.7590   -2.7300  -21.2240 Cl  0  0  0  0  0  0  0  0  0  0  0  0
   -7.0770   -1.3950  -21.5560 N   0  0  0  0  0  0  0  0  0  0  0  0
   -6.3890   -1.1000  -20.3660 C   0  0  0  0  0  0  0  0  0  0  0  0
   -6.9320   -1.1670  -19.0850 C   0  0  0  0  0  0  0  0  0  0  0  0
   -5.2330   -0.0010  -18.1190 C   0  0  0  0  0  0  0  0  0  0  0  0
   -4.5630    0.1740  -19.3520 C   0  0  0  0  0  0  0  0  0  0  0  0
   -6.3770   -0.6540  -17.9820 N   0  0  0  0  0  0  0  0  0  0  0  0
   -3.3900    0.9430  -19.5380 C   0  0  0  0  0  0  0  0  0  0  0  0
   -3.3580    0.5480  -21.7860 C   0  0  0  0  0  0  0  0  0  0  0  0
   -4.4910   -0.2090  -21.7450 C   0  0  0  0  0  0  0  0  0  0  0  0
   -2.8000    1.1270  -20.7140 N   0  0  0  0  0  0  0  0  0  0  0  0
   -5.1430   -0.4160  -20.5060 C   0  0  0  0  0  0  0  0  0  0  0  0
  2  1  2  0
  3  2  1  1
  4  3  1  0
  5  4  1  0
  6  5  1  0
  8  7  2  0
  8  6  1  0
  9  8  1  0
  9  3  1  0
 10  9  2  0
 11  7  1  0
 12 11  2  0
 12 10  1  0
 13 12  1  0
 14  2  1  0
 15 14  1  0
 16 15  2  0
 18 17  1  0
 19 16  1  0
 19 17  2  0
 20 18  2  0
 22 21  1  0
 23 21  2  0
 23 20  1  0
 24 15  1  0
 24 22  2  0
 24 18  1  0
M  END
$$$$

     RDKit          3D

 14 15  0  0  0  0  0  0  0  0999 V2000
  -13.7400  -27.0120   -4.4180 N   0  0  0  0  0  0  0  0  0  0  0  0
  -15.1250  -26.7580   -7.1730 C   0  0  0  0  0  0  0  0  0  0  0  0
  -14.2480  -29.0240   -7.9140 O   0  0  0  0  0  0  0  0  0  0  0  0
  -15.2410  -28.7200   -5.5560 C   0  0  0  0  0  0  0  0  0  0  0  0
  -13.9900  -28.2820   -4.8470 C   0  0  0  0  0  0  0  0  0  0  0  0
  -12.4560  -27.0700   -3.8400 C   0  0  0  0  0  0  0  0  0  0  0  0
  -11.6640  -26.0350   -3.2930 C   0  0  0  0  0  0  0  0  0  0  0  0
  -10.3970  -26.3660   -2.8640 C   0  0  0  0  0  0  0  0  0  0  0  0
   -9.9030  -27.6920   -2.9480 C   0  0  0  0  0  0  0  0  0  0  0  0
  -10.6570  -28.7170   -3.4700 C   0  0  0  0  0  0  0  0  0  0  0  0
  -11.9470  -28.3940   -3.9220 C   0  0  0  0  0  0  0  0  0  0  0  0
  -12.9310  -29.1660   -4.5580 N   0  0  0  0  0  0  0  0  0  0  0  0
  -16.6620  -28.6720   -7.6580 O   0  0  0  0  0  0  0  0  0  0  0  0
  -15.3260  -28.4020   -7.2450 S   0  0  1  0  0  0  0  0  0  0  0  0
  5  4  1  0
  5  1  2  0
  6  1  1  0
  7  6  2  0
  8  7  1  0
  9  8  2  0
 10  9  1  0
 11  6  1  0
 11 10  2  0
 12 11  1  0
 12  5  1  0
 14 13  2  0
 14  4  1  0
 14  3  2  0
 14  2  1  1
M  END
$$$$

     RDKit          3D

 25 28  0  0  0  0  0  0  0  0999 V2000
  -14.1260   -2.9040  -21.1110 Cl  0  0  0  0  0  0  0  0  0  0  0  0
  -13.1100   -2.0000  -22.1930 C   0  0  0  0  0  0  0  0  0  0  0  0
  -13.6830   -1.0730  -23.0380 C   0  0  0  0  0  0  0  0  0  0  0  0
  -12.8720   -0.3390  -23.8860 C   0  0  0  0  0  0  0  0  0  0  0  0
  -11.7460   -2.2100  -22.1630 C   0  0  0  0  0  0  0  0  0  0  0  0
  -10.9140   -1.4740  -22.9990 C   0  0  0  0  0  0  0  0  0  0  0  0
  -11.5000   -0.5500  -23.8710 C   0  0  0  0  0  0  0  0  0  0  0  0
  -10.7860    0.1500  -24.8180 O   0  0  0  0  0  0  0  0  0  0  0  0
   -9.3520    0.1790  -24.6460 C   0  0  0  0  0  0  0  0  0  0  0  0
   -8.7920   -1.1750  -24.2940 C   0  0  0  0  0  0  0  0  0  0  0  0
   -9.4100   -1.6730  -22.9770 C   0  0  1  0  0  0  0  0  0  0  0  0
   -8.8200   -0.9220  -21.7810 C   0  0  0  0  0  0  0  0  0  0  0  0
   -9.3900    0.0340  -21.2630 O   0  0  0  0  0  0  0  0  0  0  0  0
   -7.5610   -1.2730  -21.4600 N   0  0  0  0  0  0  0  0  0  0  0  0
   -6.8130   -0.9890  -20.3040 C   0  0  0  0  0  0  0  0  0  0  0  0
   -7.3170   -0.9940  -19.0020 C   0  0  0  0  0  0  0  0  0  0  0  0
   -6.6730   -0.4930  -17.9380 N   0  0  0  0  0  0  0  0  0  0  0  0
   -5.4850    0.0850  -18.1440 C   0  0  0  0  0  0  0  0  0  0  0  0
   -5.5720   -0.3760  -20.4950 C   0  0  0  0  0  0  0  0  0  0  0  0
   -4.8560    0.0210  -21.6330 N   0  0  0  0  0  0  0  0  0  0  0  0
   -5.1600   -0.2820  -23.0310 C   0  0  0  0  0  0  0  0  0  0  0  0
   -4.9200    0.1920  -19.4060 C   0  0  0  0  0  0  0  0  0  0  0  0
   -3.8290    0.8960  -19.8910 N   0  0  0  0  0  0  0  0  0  0  0  0
   -3.7730    0.7970  -21.2550 C   0  0  0  0  0  0  0  0  0  0  0  0
   -2.9350    1.2770  -22.0040 O   0  0  0  0  0  0  0  0  0  0  0  0
  2  1  1  0
  3  2  2  0
  4  3  1  0
  5  2  1  0
  6  5  2  0
  7  6  1  0
  7  4  2  0
  8  7  1  0
  9  8  1  0
 10  9  1  0
 11  6  1  0
 11 10  1  0
 11 12  1  1
 13 12  2  0
 14 12  1  0
 15 14  1  0
 16 15  2  0
 17 16  1  0
 18 17  2  0
 19 15  1  0
 20 19  1  0
 21 20  1  0
 22 19  2  0
 22 18  1  0
 23 22  1  0
 24 23  1  0
 24 20  1  0
 25 24  2  0
M  END
$$$$

     RDKit          3D

 22 24  0  0  0  0  0  0  0  0999 V2000
   -5.5780   -5.2990  -19.7940 O   0  0  0  0  0  0  0  0  0  0  0  0
   -6.2060   -4.2550  -19.8800 C   0  0  0  0  0  0  0  0  0  0  0  0
   -6.7930   -3.5840  -18.6520 C   0  0  0  0  0  0  0  0  0  0  0  0
   -6.4480   -3.6640  -21.0670 N   0  0  0  0  0  0  0  0  0  0  0  0
   -7.2950   -2.4870  -21.2610 C   0  0  0  0  0  0  0  0  0  0  0  0
   -8.5500   -2.9100  -21.9820 C   0  0  0  0  0  0  0  0  0  0  0  0
   -8.2140   -3.5330  -23.2790 N   0  0  1  0  0  0  0  0  0  0  0  0
   -7.2800   -4.6690  -23.1180 C   0  0  0  0  0  0  0  0  0  0  0  0
   -6.0420   -4.2620  -22.3410 C   0  0  0  0  0  0  0  0  0  0  0  0
   -9.4490   -3.9630  -23.9800 C   0  0  1  0  0  0  0  0  0  0  0  0
  -10.5120   -2.8690  -24.0040 C   0  0  0  0  0  0  0  0  0  0  0  0
  -10.4920   -1.8680  -24.9680 C   0  0  0  0  0  0  0  0  0  0  0  0
  -11.4680   -0.8810  -24.9860 C   0  0  0  0  0  0  0  0  0  0  0  0
  -12.4760   -0.8800  -24.0330 C   0  0  0  0  0  0  0  0  0  0  0  0
  -12.4980   -1.8620  -23.0570 C   0  0  0  0  0  0  0  0  0  0  0  0
  -11.5270   -2.8530  -23.0470 C   0  0  0  0  0  0  0  0  0  0  0  0
   -9.1520   -4.6980  -25.2870 C   0  0  0  0  0  0  0  0  0  0  0  0
   -9.6550   -5.9790  -25.4880 C   0  0  0  0  0  0  0  0  0  0  0  0
   -9.3050   -6.7090  -26.6130 C   0  0  0  0  0  0  0  0  0  0  0  0
   -8.4580   -6.1640  -27.5610 C   0  0  0  0  0  0  0  0  0  0  0  0
   -7.9680   -4.8840  -27.3860 C   0  0  0  0  0  0  0  0  0  0  0  0
   -8.3180   -4.1510  -26.2570 C   0  0  0  0  0  0  0  0  0  0  0  0
  2  1  2  0
  3  2  1  0
  4  2  1  0
  5  4  1  0
  6  5  1  0
  7  6  1  1
  8  7  1  0
  9  8  1  0
  9  4  1  0
 10  7  1  0
 10 11  1  6
 12 11  2  0
 13 12  1  0
 14 13  2  0
 15 14  1  0
 16 15  2  0
 16 11  1  0
 17 10  1  0
 18 17  2  0
 19 18  1  0
 20 19  2  0
 21 20  1  0
 22 21  2  0
 22 17  1  0
M  CHG  1   7   1
M  END
$$$$

     RDKit          3D

 22 24  0  0  0  0  0  0  0  0999 V2000
   -9.2200   -0.1350  -21.2640 O   0  0  0  0  0  0  0  0  0  0  0  0
   -8.6590   -1.1650  -21.6450 C   0  0  0  0  0  0  0  0  0  0  0  0
   -9.2420   -2.0410  -22.7370 C   0  0  0  0  0  0  0  0  0  0  0  0
  -10.7200   -1.7930  -22.9240 C   0  0  0  0  0  0  0  0  0  0  0  0
  -11.6480   -2.4800  -22.1490 C   0  0  0  0  0  0  0  0  0  0  0  0
  -12.9790   -2.1790  -22.2870 C   0  0  0  0  0  0  0  0  0  0  0  0
  -13.8590   -2.7710  -21.4330 F   0  0  0  0  0  0  0  0  0  0  0  0
  -13.4610   -1.2560  -23.1840 C   0  0  0  0  0  0  0  0  0  0  0  0
  -11.1660   -0.8510  -23.8450 C   0  0  0  0  0  0  0  0  0  0  0  0
  -12.5170   -0.6190  -23.9540 C   0  0  0  0  0  0  0  0  0  0  0  0
  -12.9460    0.2650  -24.8950 F   0  0  0  0  0  0  0  0  0  0  0  0
   -7.4990   -1.6150  -21.1300 N   0  0  0  0  0  0  0  0  0  0  0  0
   -6.7550   -1.0530  -20.0810 C   0  0  0  0  0  0  0  0  0  0  0  0
   -5.6300   -0.2390  -20.4090 C   0  0  0  0  0  0  0  0  0  0  0  0
   -5.1740   -0.0170  -21.7360 C   0  0  0  0  0  0  0  0  0  0  0  0
   -4.1220    0.8170  -21.9870 C   0  0  0  0  0  0  0  0  0  0  0  0
   -3.4710    1.4680  -20.9480 C   0  0  0  0  0  0  0  0  0  0  0  0
   -3.8650    1.2790  -19.6530 C   0  0  0  0  0  0  0  0  0  0  0  0
   -4.9500    0.4230  -19.3470 C   0  0  0  0  0  0  0  0  0  0  0  0
   -5.4250    0.2130  -18.0300 C   0  0  0  0  0  0  0  0  0  0  0  0
   -6.4660   -0.5520  -17.7250 N   0  0  0  0  0  0  0  0  0  0  0  0
   -7.1000   -1.1640  -18.7340 C   0  0  0  0  0  0  0  0  0  0  0  0
  2  1  2  0
  3  2  1  0
  4  3  1  0
  5  4  2  0
  6  5  1  0
  7  6  1  0
  8  6  2  0
  9  4  1  0
 10  9  2  0
 10  8  1  0
 11 10  1  0
 12  2  1  0
 13 12  1  0
 14 13  1  0
 15 14  2  0
 16 15  1  0
 17 16  2  0
 18 17  1  0
 19 14  1  0
 19 18  2  0
 20 19  1  0
 21 20  2  0
 22 21  1  0
 22 13  2  0
M  END
$$$$

     RDKit          3D

 21 23  0  0  0  0  0  0  0  0999 V2000
  -10.6110   -2.1320  -23.1230 C   0  0  2  0  0  0  0  0  0  0  0  0
   -4.3530    0.5940  -19.1410 C   0  0  0  0  0  0  0  0  0  0  0  0
  -11.9270   -2.8610  -22.8630 C   0  0  0  0  0  0  0  0  0  0  0  0
  -13.1080   -2.2220  -23.5890 C   0  0  0  0  0  0  0  0  0  0  0  0
   -6.0180   -0.8510  -19.9640 C   0  0  0  0  0  0  0  0  0  0  0  0
  -12.8370   -2.1290  -25.0770 C   0  0  0  0  0  0  0  0  0  0  0  0
  -11.5950   -1.2970  -25.3180 C   0  0  0  0  0  0  0  0  0  0  0  0
  -10.3880   -1.9190  -24.6220 C   0  0  0  0  0  0  0  0  0  0  0  0
   -7.8590   -1.2230  -21.6360 C   0  0  0  0  0  0  0  0  0  0  0  0
   -6.5240   -0.9170  -18.6690 C   0  0  0  0  0  0  0  0  0  0  0  0
   -4.8960    0.4940  -17.8810 C   0  0  0  0  0  0  0  0  0  0  0  0
   -7.0220   -3.1540  -22.5700 N   0  0  0  0  0  0  0  0  0  0  0  0
   -6.6580   -1.5780  -21.0270 N   0  0  0  0  0  0  0  0  0  0  0  0
   -9.4430   -2.9030  -22.5140 C   0  0  0  0  0  0  0  0  0  0  0  0
   -5.9680   -0.2610  -17.6490 N   0  0  0  0  0  0  0  0  0  0  0  0
   -6.1820   -2.7860  -21.5970 C   0  0  0  0  0  0  0  0  0  0  0  0
   -4.9050   -0.0690  -20.2060 C   0  0  0  0  0  0  0  0  0  0  0  0
   -8.1130   -2.2060  -22.7670 C   0  0  0  0  0  0  0  0  0  0  0  0
   -3.2580    1.3800  -19.3350 F   0  0  0  0  0  0  0  0  0  0  0  0
   -5.1820   -3.3730  -21.2540 O   0  0  0  0  0  0  0  0  0  0  0  0
   -8.5520   -0.2780  -21.3430 O   0  0  0  0  0  0  0  0  0  0  0  0
  3  1  1  0
  4  3  1  0
  6  4  1  0
  7  6  1  0
  8  7  1  0
  8  1  1  0
 10  5  1  0
 11  2  2  0
 13  9  1  0
 13  5  1  0
  1 14  1  6
 15 10  2  0
 15 11  1  0
 16 12  1  0
 16 13  1  0
 17  5  2  0
 17  2  1  0
 18 14  1  0
 18 12  1  0
 18  9  2  0
 19  2  1  0
 20 16  2  0
 21  9  1  0
M  CHG  1  21  -1
M  END
$$$$

     RDKit          3D

 20 22  0  0  0  0  0  0  0  0999 V2000
  -23.8080  -29.4540  -20.3870 Cl  0  0  0  0  0  0  0  0  0  0  0  0
  -23.3490  -28.6930  -18.8940 C   0  0  0  0  0  0  0  0  0  0  0  0
  -23.7500  -29.2660  -17.7050 C   0  0  0  0  0  0  0  0  0  0  0  0
  -23.3960  -28.6730  -16.5060 C   0  0  0  0  0  0  0  0  0  0  0  0
  -22.6450  -27.5090  -16.5300 C   0  0  0  0  0  0  0  0  0  0  0  0
  -22.2280  -26.7140  -15.4790 N   0  0  0  0  0  0  0  0  0  0  0  0
  -21.5390  -25.6310  -15.9850 C   0  0  0  0  0  0  0  0  0  0  0  0
  -21.0260  -24.5360  -15.2840 C   0  0  0  0  0  0  0  0  0  0  0  0
  -21.0740  -24.5210  -13.7740 C   0  0  0  0  0  0  0  0  0  0  0  0
  -22.5870  -27.5380  -18.9390 C   0  0  0  0  0  0  0  0  0  0  0  0
  -22.2230  -26.9300  -17.7420 C   0  0  0  0  0  0  0  0  0  0  0  0
  -21.4950  -25.7210  -17.3870 C   0  0  0  0  0  0  0  0  0  0  0  0
  -20.8710  -24.7030  -18.1040 C   0  0  0  0  0  0  0  0  0  0  0  0
  -20.3660  -23.6120  -17.4230 C   0  0  0  0  0  0  0  0  0  0  0  0
  -20.4550  -23.4920  -16.0340 C   0  0  0  0  0  0  0  0  0  0  0  0
  -19.9750  -22.2170  -15.3510 C   0  0  1  0  0  0  0  0  0  0  0  0
  -19.1270  -21.3540  -16.2770 C   0  0  0  0  0  0  0  0  0  0  0  0
  -21.1150  -21.3970  -14.7710 C   0  0  0  0  0  0  0  0  0  0  0  0
  -21.1090  -21.0170  -13.6210 O   0  0  0  0  0  0  0  0  0  0  0  0
  -22.0740  -21.1340  -15.6180 O   0  0  0  0  0  0  0  0  0  0  0  0
  2  1  1  0
  3  2  2  0
  4  3  1  0
  5  4  2  0
  6  5  1  0
  7  6  1  0
  8  7  1  0
  9  8  1  0
 10  2  1  0
 11 10  2  0
 11  5  1  0
 12 11  1  0
 12  7  2  0
 13 12  1  0
 14 13  2  0
 15 14  1  0
 15  8  2  0
 16 15  1  0
 16 17  1  6
 18 16  1  0
 19 18  2  0
 20 18  1  0
M  CHG  1  20  -1
M  END
$$$$

     RDKit          3D

 31 34  0  0  0  0  0  0  0  0999 V2000
  -13.9210   -2.8390  -21.2240 Cl  0  0  0  0  0  0  0  0  0  0  0  0
  -12.9770   -1.9670  -22.4030 C   0  0  0  0  0  0  0  0  0  0  0  0
  -13.6200   -1.1210  -23.2900 C   0  0  0  0  0  0  0  0  0  0  0  0
  -12.8700   -0.3880  -24.1920 C   0  0  0  0  0  0  0  0  0  0  0  0
  -11.6010   -2.1060  -22.3890 C   0  0  0  0  0  0  0  0  0  0  0  0
  -10.8320   -1.3550  -23.2770 C   0  0  0  0  0  0  0  0  0  0  0  0
  -11.4880   -0.5050  -24.1740 C   0  0  0  0  0  0  0  0  0  0  0  0
  -10.8110    0.2810  -25.0730 O   0  0  0  0  0  0  0  0  0  0  0  0
   -9.5820   -0.3040  -25.5330 C   0  0  0  0  0  0  0  0  0  0  0  0
   -8.6370   -0.6270  -24.3900 C   0  0  0  0  0  0  0  0  0  0  0  0
   -9.3180   -1.4440  -23.2720 C   0  0  2  0  0  0  0  0  0  0  0  0
   -8.8960   -2.8050  -23.1280 O   0  0  0  0  0  0  0  0  0  0  0  0
   -9.0340   -3.6550  -24.2700 C   0  0  0  0  0  0  0  0  0  0  0  0
   -8.7310   -0.8030  -21.9770 C   0  0  0  0  0  0  0  0  0  0  0  0
   -9.2690    0.1680  -21.4620 O   0  0  0  0  0  0  0  0  0  0  0  0
   -7.5890   -1.3640  -21.5040 N   0  0  0  0  0  0  0  0  0  0  0  0
   -6.8690   -0.9380  -20.3630 C   0  0  0  0  0  0  0  0  0  0  0  0
   -7.3130   -1.1290  -19.0550 C   0  0  0  0  0  0  0  0  0  0  0  0
   -6.7250   -0.6230  -17.9600 N   0  0  0  0  0  0  0  0  0  0  0  0
   -5.6310    0.1080  -18.1320 C   0  0  0  0  0  0  0  0  0  0  0  0
   -5.0440    0.3800  -19.3920 C   0  0  0  0  0  0  0  0  0  0  0  0
   -5.6760   -0.1620  -20.5480 C   0  0  0  0  0  0  0  0  0  0  0  0
   -5.0790    0.0780  -21.8150 C   0  0  0  0  0  0  0  0  0  0  0  0
   -3.9220    0.7980  -21.9270 C   0  0  0  0  0  0  0  0  0  0  0  0
   -3.8570    1.1310  -19.5430 C   0  0  0  0  0  0  0  0  0  0  0  0
   -3.3130    1.3060  -20.7870 C   0  0  0  0  0  0  0  0  0  0  0  0
   -1.7510    2.1140  -20.9180 S   0  0  1  0  0  0  0  0  0  0  0  0
   -1.4200    2.6560  -19.6340 O   0  0  0  0  0  0  0  0  0  0  0  0
   -0.8400    1.2140  -21.5530 O   0  0  0  0  0  0  0  0  0  0  0  0
   -1.9350    3.3700  -21.9080 N   0  0  0  0  0  0  0  0  0  0  0  0
   -2.7340    4.5110  -21.4720 C   0  0  0  0  0  0  0  0  0  0  0  0
  2  1  1  0
  3  2  2  0
  4  3  1  0
  5  2  1  0
  6  5  2  0
  7  4  2  0
  7  6  1  0
  8  7  1  0
  9  8  1  0
 10  9  1  0
 11 10  1  0
 11  6  1  0
 11 12  1  6
 13 12  1  0
 14 11  1  0
 15 14  2  0
 16 14  1  0
 17 16  1  0
 18 17  2  0
 19 18  1  0
 20 19  2  0
 21 20  1  0
 22 17  1  0
 22 21  2  0
 23 22  1  0
 24 23  2  0
 25 21  1  0
 26 24  1  0
 26 25  2  0
 27 26  1  0
 28 27  2  0
 29 27  2  0
 27 30  1  6
 31 30  1  0
M  END
$$$$

     RDKit          3D

 23 25  0  0  0  0  0  0  0  0999 V2000
   -9.1180   -1.6890  -22.1480 N   0  0  0  0  0  0  0  0  0  0  0  0
  -11.9710    3.1900  -22.1880 N   0  0  0  0  0  0  0  0  0  0  0  0
   -4.5640    0.5960  -19.2080 N   0  0  0  0  0  0  0  0  0  0  0  0
  -11.3920   -2.4100  -22.5050 C   0  0  0  0  0  0  0  0  0  0  0  0
  -11.7740    2.5450  -23.4840 C   0  0  1  0  0  0  0  0  0  0  0  0
  -12.6050    1.3810  -23.6820 O   0  0  0  0  0  0  0  0  0  0  0  0
   -5.0940   -0.1540  -20.1810 C   0  0  0  0  0  0  0  0  0  0  0  0
  -10.4430   -1.3940  -22.5490 C   0  0  0  0  0  0  0  0  0  0  0  0
   -6.7030   -1.0120  -18.7120 C   0  0  0  0  0  0  0  0  0  0  0  0
   -6.1730   -1.0020  -19.9900 C   0  0  0  0  0  0  0  0  0  0  0  0
   -6.9280   -1.5940  -21.1590 C   0  0  0  0  0  0  0  0  0  0  0  0
  -12.1350    0.1480  -23.2800 C   0  0  0  0  0  0  0  0  0  0  0  0
  -12.5630    4.2830  -22.7030 C   0  0  0  0  0  0  0  0  0  0  0  0
  -10.8110   -0.1120  -22.9470 C   0  0  0  0  0  0  0  0  0  0  0  0
  -13.6090   -3.1000  -22.8160 F   0  0  0  0  0  0  0  0  0  0  0  0
  -12.5100    3.7290  -24.1210 C   0  0  0  0  0  0  0  0  0  0  0  0
  -13.0980   -0.8490  -23.2320 C   0  0  0  0  0  0  0  0  0  0  0  0
  -12.6880   -2.1020  -22.8420 C   0  0  0  0  0  0  0  0  0  0  0  0
   -6.2070   -0.2830  -17.7060 N   0  0  0  0  0  0  0  0  0  0  0  0
   -8.4510    0.2660  -21.1720 O   0  0  0  0  0  0  0  0  0  0  0  0
  -12.9820    5.3140  -22.1760 O   0  0  0  0  0  0  0  0  0  0  0  0
   -5.1510    0.4770  -18.0140 C   0  0  0  0  0  0  0  0  0  0  0  0
   -8.2340   -0.9010  -21.4900 C   0  0  0  0  0  0  0  0  0  0  0  0
  5  2  1  0
  5  6  1  1
  7  3  2  0
  8  4  2  0
  8  1  1  0
 10  9  2  0
 10  7  1  0
 11 10  1  0
 12  6  1  0
 13  2  1  0
 14 12  2  0
 14  8  1  0
 16 13  1  0
 16  5  1  0
 17 12  1  0
 18 17  2  0
 18 15  1  0
 18  4  1  0
 19  9  1  0
 21 13  2  0
 22 19  2  0
 22  3  1  0
 23  1  1  0
 23 20  2  0
 23 11  1  0
M  END
$$$$

     RDKit          3D

 33 36  0  0  0  0  0  0  0  0999 V2000
  -13.7240   -3.0380  -21.6080 Cl  0  0  0  0  0  0  0  0  0  0  0  0
  -12.5970   -2.0620  -22.5100 C   0  0  0  0  0  0  0  0  0  0  0  0
  -11.2460   -2.3250  -22.4020 C   0  0  0  0  0  0  0  0  0  0  0  0
  -13.0750   -1.0900  -23.3540 C   0  0  0  0  0  0  0  0  0  0  0  0
  -12.1830   -0.3960  -24.1520 C   0  0  0  0  0  0  0  0  0  0  0  0
  -10.8140   -0.6510  -24.0950 C   0  0  0  0  0  0  0  0  0  0  0  0
   -9.9250    0.0700  -25.0850 C   0  0  0  0  0  0  0  0  0  0  0  0
   -8.4900   -0.1060  -24.8220 N   0  0  0  0  0  0  0  0  0  0  0  0
   -7.3330    0.9070  -25.2700 S   0  0  2  0  0  0  0  0  0  0  0  0
   -7.4740    1.0930  -26.6730 O   0  0  0  0  0  0  0  0  0  0  0  0
   -6.1070    0.4480  -24.7180 O   0  0  0  0  0  0  0  0  0  0  0  0
   -7.7380    2.2700  -24.5460 N   0  0  0  0  0  0  0  0  0  0  0  0
   -7.3450    2.4570  -23.1470 C   0  0  0  0  0  0  0  0  0  0  0  0
   -8.3950    3.4400  -25.1730 C   0  0  0  0  0  0  0  0  0  0  0  0
   -7.4670    4.6150  -25.3720 C   0  0  0  0  0  0  0  0  0  0  0  0
   -6.6450    4.3730  -26.4890 O   0  0  0  0  0  0  0  0  0  0  0  0
   -7.0060    5.1760  -27.5980 C   0  0  0  0  0  0  0  0  0  0  0  0
  -10.3380   -1.6070  -23.1830 C   0  0  0  0  0  0  0  0  0  0  0  0
   -8.8470   -1.8180  -23.0030 C   0  0  1  0  0  0  0  0  0  0  0  0
   -8.0900   -1.4110  -24.2640 C   0  0  0  0  0  0  0  0  0  0  0  0
   -8.3690   -1.0410  -21.7750 C   0  0  0  0  0  0  0  0  0  0  0  0
   -8.9790   -0.0660  -21.3410 O   0  0  0  0  0  0  0  0  0  0  0  0
   -7.2280   -1.5120  -21.2210 N   0  0  0  0  0  0  0  0  0  0  0  0
   -6.5360   -1.0030  -20.1020 C   0  0  0  0  0  0  0  0  0  0  0  0
   -5.4080   -0.1540  -20.3270 C   0  0  0  0  0  0  0  0  0  0  0  0
   -4.9100    0.1710  -21.6150 C   0  0  0  0  0  0  0  0  0  0  0  0
   -3.8390    1.0070  -21.7650 C   0  0  0  0  0  0  0  0  0  0  0  0
   -3.2100    1.5550  -20.6550 C   0  0  0  0  0  0  0  0  0  0  0  0
   -3.6500    1.2710  -19.3940 C   0  0  0  0  0  0  0  0  0  0  0  0
   -4.7580    0.4120  -19.1950 C   0  0  0  0  0  0  0  0  0  0  0  0
   -5.2690    0.0900  -17.9130 C   0  0  0  0  0  0  0  0  0  0  0  0
   -6.3110   -0.7020  -17.7040 N   0  0  0  0  0  0  0  0  0  0  0  0
   -6.9170   -1.2250  -18.7790 C   0  0  0  0  0  0  0  0  0  0  0  0
  2  1  1  0
  3  2  2  0
  4  2  1  0
  5  4  2  0
  6  5  1  0
  7  6  1  0
  8  7  1  0
  9  8  1  0
 10  9  2  0
 11  9  2  0
  9 12  1  1
 13 12  1  0
 14 12  1  0
 15 14  1  0
 16 15  1  0
 17 16  1  0
 18  3  1  0
 18  6  2  0
 19 18  1  0
 20 19  1  0
 20  8  1  0
 19 21  1  1
 22 21  2  0
 23 21  1  0
 24 23  1  0
 25 24  1  0
 26 25  2  0
 27 26  1  0
 28 27  2  0
 29 28  1  0
 30 29  2  0
 30 25  1  0
 31 30  1  0
 32 31  2  0
 33 32  1  0
 33 24  2  0
M  END
$$$$

     RDKit          3D

 33 36  0  0  0  0  0  0  0  0999 V2000
  -10.1980    1.0990  -25.4110 O   0  0  0  0  0  0  0  0  0  0  0  0
   -9.8500    0.1370  -24.7500 C   0  0  0  0  0  0  0  0  0  0  0  0
   -8.5380   -0.2650  -24.6920 N   0  0  0  0  0  0  0  0  0  0  0  0
   -7.5600    0.3510  -25.5740 C   0  0  0  0  0  0  0  0  0  0  0  0
   -6.8190    1.5730  -25.0560 C   0  0  0  0  0  0  0  0  0  0  0  0
   -6.3120    2.3840  -25.8320 O   0  0  0  0  0  0  0  0  0  0  0  0
   -6.7070    1.6630  -23.7210 N   0  0  0  0  0  0  0  0  0  0  0  0
   -7.1070    2.8460  -22.9440 C   0  0  2  0  0  0  0  0  0  0  0  0
   -8.4440    3.3990  -23.3990 C   0  0  0  0  0  0  0  0  0  0  0  0
   -6.0150    3.8960  -22.9590 C   0  0  0  0  0  0  0  0  0  0  0  0
  -10.8150   -0.6160  -23.9280 C   0  0  0  0  0  0  0  0  0  0  0  0
  -12.1700   -0.2820  -23.9870 C   0  0  0  0  0  0  0  0  0  0  0  0
  -13.0990   -0.9970  -23.2530 C   0  0  0  0  0  0  0  0  0  0  0  0
  -12.6710   -2.0570  -22.4800 C   0  0  0  0  0  0  0  0  0  0  0  0
  -13.8440   -2.9960  -21.5970 Cl  0  0  0  0  0  0  0  0  0  0  0  0
  -11.3330   -2.3940  -22.3890 C   0  0  0  0  0  0  0  0  0  0  0  0
  -10.3850   -1.6530  -23.0920 C   0  0  0  0  0  0  0  0  0  0  0  0
   -8.9090   -1.9310  -22.9080 C   0  0  1  0  0  0  0  0  0  0  0  0
   -8.1550   -1.5900  -24.1950 C   0  0  0  0  0  0  0  0  0  0  0  0
   -8.3780   -1.0840  -21.7500 C   0  0  0  0  0  0  0  0  0  0  0  0
   -8.8690    0.0080  -21.4560 O   0  0  0  0  0  0  0  0  0  0  0  0
   -7.3080   -1.6090  -21.1110 N   0  0  0  0  0  0  0  0  0  0  0  0
   -6.5790   -1.0410  -20.0420 C   0  0  0  0  0  0  0  0  0  0  0  0
   -5.4560   -0.2160  -20.3550 C   0  0  0  0  0  0  0  0  0  0  0  0
   -4.9250   -0.0770  -21.6610 C   0  0  0  0  0  0  0  0  0  0  0  0
   -3.8490    0.7230  -21.9020 C   0  0  0  0  0  0  0  0  0  0  0  0
   -3.2790    1.4110  -20.8600 C   0  0  0  0  0  0  0  0  0  0  0  0
   -2.2080    2.2060  -21.1300 F   0  0  0  0  0  0  0  0  0  0  0  0
   -3.7190    1.3310  -19.5770 C   0  0  0  0  0  0  0  0  0  0  0  0
   -4.8220    0.4900  -19.2920 C   0  0  0  0  0  0  0  0  0  0  0  0
   -5.3250    0.2930  -17.9830 C   0  0  0  0  0  0  0  0  0  0  0  0
   -6.3470   -0.4990  -17.6850 N   0  0  0  0  0  0  0  0  0  0  0  0
   -6.9500   -1.1390  -18.6980 C   0  0  0  0  0  0  0  0  0  0  0  0
  2  1  2  0
  3  2  1  0
  4  3  1  0
  5  4  1  0
  6  5  2  0
  7  5  1  0
  8  7  1  0
  8  9  1  6
 10  8  1  0
 11  2  1  0
 12 11  2  0
 13 12  1  0
 14 13  2  0
 15 14  1  0
 16 14  1  0
 17 16  2  0
 17 11  1  0
 18 17  1  0
 19 18  1  0
 19  3  1  0
 18 20  1  1
 21 20  2  0
 22 20  1  0
 23 22  1  0
 24 23  1  0
 25 24  2  0
 26 25  1  0
 27 26  2  0
 28 27  1  0
 29 27  1  0
 30 24  1  0
 30 29  2  0
 31 30  1  0
 32 31  2  0
 33 32  1  0
 33 23  2  0
M  END
$$$$

     RDKit          3D

 27 30  0  0  0  0  0  0  0  0999 V2000
   -8.9520   -0.0370  -21.2270 O   0  0  0  0  0  0  0  0  0  0  0  0
   -8.3730   -1.0130  -21.6800 C   0  0  0  0  0  0  0  0  0  0  0  0
   -8.9220   -1.7480  -22.9290 C   0  0  1  0  0  0  0  0  0  0  0  0
  -10.3980   -1.5160  -23.1650 C   0  0  0  0  0  0  0  0  0  0  0  0
  -11.3560   -2.0960  -22.3350 C   0  0  0  0  0  0  0  0  0  0  0  0
  -12.6810   -1.7090  -22.4210 C   0  0  0  0  0  0  0  0  0  0  0  0
  -13.8460   -2.4490  -21.3720 Cl  0  0  0  0  0  0  0  0  0  0  0  0
  -13.0700   -0.7410  -23.3300 C   0  0  0  0  0  0  0  0  0  0  0  0
  -14.7380   -0.2950  -23.4820 Cl  0  0  0  0  0  0  0  0  0  0  0  0
  -12.1390   -0.1440  -24.1620 C   0  0  0  0  0  0  0  0  0  0  0  0
  -10.8180   -0.5410  -24.0730 C   0  0  0  0  0  0  0  0  0  0  0  0
   -9.9640    0.0570  -24.9680 O   0  0  0  0  0  0  0  0  0  0  0  0
   -8.5790    0.1110  -24.5660 C   0  0  0  0  0  0  0  0  0  0  0  0
   -8.0660   -1.2330  -24.0930 C   0  0  0  0  0  0  0  0  0  0  0  0
   -8.6910   -3.1160  -22.6140 O   0  0  0  0  0  0  0  0  0  0  0  0
   -8.8810   -4.0650  -23.6710 C   0  0  0  0  0  0  0  0  0  0  0  0
   -7.2220   -1.5050  -21.1790 N   0  0  0  0  0  0  0  0  0  0  0  0
   -6.5300   -0.9790  -20.0650 C   0  0  0  0  0  0  0  0  0  0  0  0
   -5.4370   -0.0950  -20.3080 C   0  0  0  0  0  0  0  0  0  0  0  0
   -4.9690    0.2400  -21.6040 C   0  0  0  0  0  0  0  0  0  0  0  0
   -3.9190    1.0970  -21.7730 C   0  0  0  0  0  0  0  0  0  0  0  0
   -3.2810    1.6600  -20.6750 C   0  0  0  0  0  0  0  0  0  0  0  0
   -3.6890    1.3610  -19.4050 C   0  0  0  0  0  0  0  0  0  0  0  0
   -4.7770    0.4820  -19.1850 C   0  0  0  0  0  0  0  0  0  0  0  0
   -5.2540    0.1440  -17.8960 C   0  0  0  0  0  0  0  0  0  0  0  0
   -6.2680   -0.6830  -17.6700 N   0  0  0  0  0  0  0  0  0  0  0  0
   -6.8820   -1.2190  -18.7380 C   0  0  0  0  0  0  0  0  0  0  0  0
  2  1  2  0
  3  2  1  0
  4  3  1  0
  5  4  2  0
  6  5  1  0
  7  6  1  0
  8  6  2  0
  9  8  1  0
 10  8  1  0
 11 10  2  0
 11  4  1  0
 12 11  1  0
 13 12  1  0
 14 13  1  0
 14  3  1  0
  3 15  1  1
 16 15  1  0
 17  2  1  0
 18 17  1  0
 19 18  1  0
 20 19  2  0
 21 20  1  0
 22 21  2  0
 23 22  1  0
 24 23  2  0
 24 19  1  0
 25 24  1  0
 26 25  2  0
 27 26  1  0
 27 18  2  0
M  END
$$$$

     RDKit          3D

 16 16  0  0  0  0  0  0  0  0999 V2000
   -9.3680   -0.0970  -21.4200 O   0  0  0  0  0  0  0  0  0  0  0  0
   -8.7760   -1.0590  -21.9020 C   0  0  0  0  0  0  0  0  0  0  0  0
   -9.3840   -1.8490  -23.0560 C   0  0  2  0  0  0  0  0  0  0  0  0
  -10.4880   -1.1260  -23.6280 O   0  0  0  0  0  0  0  0  0  0  0  0
  -10.1810   -0.3480  -24.6830 C   0  0  1  0  0  0  0  0  0  0  0  0
  -10.4470   -1.0960  -25.7610 F   0  0  0  0  0  0  0  0  0  0  0  0
  -11.0300    0.6960  -24.5570 F   0  0  0  0  0  0  0  0  0  0  0  0
   -9.9470   -3.1790  -22.6090 C   0  0  0  0  0  0  0  0  0  0  0  0
   -7.5440   -1.4700  -21.5160 N   0  0  0  0  0  0  0  0  0  0  0  0
   -6.7740   -0.9650  -20.4410 C   0  0  0  0  0  0  0  0  0  0  0  0
   -5.5510   -0.3200  -20.6990 C   0  0  0  0  0  0  0  0  0  0  0  0
   -5.0470   -0.0900  -22.1000 C   0  0  0  0  0  0  0  0  0  0  0  0
   -4.8070    0.1040  -19.6010 C   0  0  0  0  0  0  0  0  0  0  0  0
   -5.2870   -0.1190  -18.3250 C   0  0  0  0  0  0  0  0  0  0  0  0
   -6.4560   -0.7100  -18.0670 N   0  0  0  0  0  0  0  0  0  0  0  0
   -7.1790   -1.1230  -19.1130 C   0  0  0  0  0  0  0  0  0  0  0  0
  2  1  2  0
  3  2  1  0
  4  3  1  0
  5  4  1  0
  5  6  1  6
  7  5  1  0
  3  8  1  1
  9  2  1  0
 10  9  1  0
 11 10  2  0
 12 11  1  0
 13 11  1  0
 14 13  2  0
 15 14  1  0
 16 15  2  0
 16 10  1  0
M  END
$$$$

     RDKit          3D

 17 18  0  0  0  0  0  0  0  0999 V2000
  -13.1780   -3.0480  -21.7390 Cl  0  0  0  0  0  0  0  0  0  0  0  0
  -11.9850   -2.1490  -22.6340 C   0  0  0  0  0  0  0  0  0  0  0  0
  -12.4010   -1.1980  -23.5390 C   0  0  0  0  0  0  0  0  0  0  0  0
  -11.4450   -0.5220  -24.2760 C   0  0  0  0  0  0  0  0  0  0  0  0
  -10.0970   -0.7840  -24.0810 C   0  0  0  0  0  0  0  0  0  0  0  0
  -10.6440   -2.4220  -22.4280 C   0  0  0  0  0  0  0  0  0  0  0  0
   -9.6800   -1.7210  -23.1480 C   0  0  0  0  0  0  0  0  0  0  0  0
   -8.2120   -1.8940  -22.8310 C   0  0  0  0  0  0  0  0  0  0  0  0
   -7.8570   -1.0910  -21.5950 C   0  0  0  0  0  0  0  0  0  0  0  0
   -8.4790   -0.0800  -21.2740 O   0  0  0  0  0  0  0  0  0  0  0  0
   -6.7830   -1.5570  -20.8890 N   0  0  0  0  0  0  0  0  0  0  0  0
   -6.3570   -0.9890  -19.6880 C   0  0  0  0  0  0  0  0  0  0  0  0
   -5.3920   -0.0070  -19.5660 N   0  0  0  0  0  0  0  0  0  0  0  0
   -4.7090    0.7210  -20.6330 C   0  0  0  0  0  0  0  0  0  0  0  0
   -6.7980   -1.2750  -18.4370 C   0  0  0  0  0  0  0  0  0  0  0  0
   -6.1210   -0.5010  -17.5210 N   0  0  0  0  0  0  0  0  0  0  0  0
   -5.2900    0.2300  -18.2360 C   0  0  0  0  0  0  0  0  0  0  0  0
  2  1  1  0
  3  2  2  0
  4  3  1  0
  5  4  2  0
  6  2  1  0
  7  6  2  0
  7  5  1  0
  8  7  1  0
  9  8  1  0
 10  9  2  0
 11  9  1  0
 12 11  1  0
 13 12  1  0
 14 13  1  0
 15 12  2  0
 16 15  1  0
 17 16  2  0
 17 13  1  0
M  END
$$$$

     RDKit          3D

 23 25  0  0  0  0  0  0  0  0999 V2000
   -6.8960   -2.4020  -21.7650 N   0  0  0  0  0  0  0  0  0  0  0  0
   -4.5640    0.7060  -18.5450 N   0  0  0  0  0  0  0  0  0  0  0  0
   -7.3540   -3.4630  -22.6540 C   0  0  0  0  0  0  0  0  0  0  0  0
   -5.5950   -0.0980  -18.1340 C   0  0  0  0  0  0  0  0  0  0  0  0
   -6.2000    0.1530  -17.0890 O   0  0  0  0  0  0  0  0  0  0  0  0
  -11.5850   -2.4430  -22.6540 C   0  0  0  0  0  0  0  0  0  0  0  0
   -8.8670   -3.4890  -22.7480 C   0  0  0  0  0  0  0  0  0  0  0  0
  -13.2250   -0.8730  -23.4440 C   0  0  0  0  0  0  0  0  0  0  0  0
   -3.7100   -0.4950  -21.9280 C   0  0  0  0  0  0  0  0  0  0  0  0
  -12.3090   -0.3770  -24.3560 C   0  0  0  0  0  0  0  0  0  0  0  0
  -11.0280   -0.9030  -24.4220 C   0  0  0  0  0  0  0  0  0  0  0  0
   -2.8850    1.4630  -20.1170 C   0  0  0  0  0  0  0  0  0  0  0  0
   -5.9640   -1.1500  -19.0320 C   0  0  0  0  0  0  0  0  0  0  0  0
   -4.3280   -0.4100  -20.6780 C   0  0  0  0  0  0  0  0  0  0  0  0
   -5.3790   -1.3240  -20.2460 C   0  0  0  0  0  0  0  0  0  0  0  0
   -3.9210    0.5940  -19.7750 C   0  0  0  0  0  0  0  0  0  0  0  0
   -2.2690    1.3400  -21.3500 C   0  0  0  0  0  0  0  0  0  0  0  0
   -5.7630   -2.5050  -21.0730 C   0  0  0  0  0  0  0  0  0  0  0  0
   -9.3560   -2.4130  -23.5930 N   0  0  0  0  0  0  0  0  0  0  0  0
   -5.0510   -3.5080  -21.1290 O   0  0  0  0  0  0  0  0  0  0  0  0
  -12.8650   -1.9100  -22.6030 C   0  0  0  0  0  0  0  0  0  0  0  0
  -10.6530   -1.9320  -23.5600 C   0  0  0  0  0  0  0  0  0  0  0  0
   -2.6810    0.3760  -22.2520 C   0  0  0  0  0  0  0  0  0  0  0  0
  3  1  1  0
  4  2  1  0
  5  4  2  0
  7  3  1  0
 10  8  2  0
 11 10  1  0
 13  4  1  0
 14  9  1  0
 15 13  2  0
 15 14  1  0
 16 14  2  0
 16 12  1  0
 16  2  1  0
 17 12  2  0
 18  1  1  0
 18 15  1  0
 19  7  1  0
 20 18  2  0
 21  8  1  0
 21  6  2  0
 22 11  2  0
 22  6  1  0
 22 19  1  0
 23  9  2  0
 23 17  1  0
M  END
$$$$

     RDKit          3D

 22 24  0  0  0  0  0  0  0  0999 V2000
  -13.5400   -2.9660  -21.6390 Cl  0  0  0  0  0  0  0  0  0  0  0  0
  -12.3080   -2.1010  -22.5030 C   0  0  0  0  0  0  0  0  0  0  0  0
  -12.6740   -1.0880  -23.3610 C   0  0  0  0  0  0  0  0  0  0  0  0
  -11.6850   -0.4490  -24.0870 C   0  0  0  0  0  0  0  0  0  0  0  0
  -10.3570   -0.8120  -23.9310 C   0  0  0  0  0  0  0  0  0  0  0  0
  -10.9910   -2.4590  -22.3190 C   0  0  0  0  0  0  0  0  0  0  0  0
   -9.9950   -1.8100  -23.0390 C   0  0  0  0  0  0  0  0  0  0  0  0
   -8.5450   -2.1610  -22.8170 C   0  0  0  0  0  0  0  0  0  0  0  0
   -7.9730   -1.3570  -21.6640 C   0  0  0  0  0  0  0  0  0  0  0  0
   -8.5460   -0.3400  -21.2820 O   0  0  0  0  0  0  0  0  0  0  0  0
   -6.8170   -1.7650  -21.0950 N   0  0  0  0  0  0  0  0  0  0  0  0
   -6.1630   -2.9910  -21.5560 C   0  0  0  0  0  0  0  0  0  0  0  0
   -6.2080   -1.0680  -20.0120 C   0  0  0  0  0  0  0  0  0  0  0  0
   -5.1080   -0.2250  -20.2890 C   0  0  0  0  0  0  0  0  0  0  0  0
   -4.5650   -0.0310  -21.5810 C   0  0  0  0  0  0  0  0  0  0  0  0
   -3.4760    0.7690  -21.7700 C   0  0  0  0  0  0  0  0  0  0  0  0
   -2.8860    1.4250  -20.6960 C   0  0  0  0  0  0  0  0  0  0  0  0
   -3.3840    1.2830  -19.4340 C   0  0  0  0  0  0  0  0  0  0  0  0
   -4.5070    0.4500  -19.1960 C   0  0  0  0  0  0  0  0  0  0  0  0
   -5.0560    0.2340  -17.9090 C   0  0  0  0  0  0  0  0  0  0  0  0
   -6.0970   -0.5590  -17.6650 N   0  0  0  0  0  0  0  0  0  0  0  0
   -6.6530   -1.1880  -18.7040 C   0  0  0  0  0  0  0  0  0  0  0  0
  2  1  1  0
  3  2  2  0
  4  3  1  0
  5  4  2  0
  6  2  1  0
  7  6  2  0
  7  5  1  0
  8  7  1  0
  9  8  1  0
 10  9  2  0
 11  9  1  0
 12 11  1  0
 13 11  1  0
 14 13  1  0
 15 14  2  0
 16 15  1  0
 17 16  2  0
 18 17  1  0
 19 18  2  0
 19 14  1  0
 20 19  1  0
 21 20  2  0
 22 21  1  0
 22 13  2  0
M  END
$$$$

     RDKit          3D

 26 29  0  0  0  0  0  0  0  0999 V2000
   -9.1620    0.0570  -21.4210 O   0  0  0  0  0  0  0  0  0  0  0  0
   -8.6260   -0.9540  -21.8800 C   0  0  0  0  0  0  0  0  0  0  0  0
   -7.5040   -1.5030  -21.3530 N   0  0  0  0  0  0  0  0  0  0  0  0
   -6.7580   -1.0380  -20.2430 C   0  0  0  0  0  0  0  0  0  0  0  0
   -5.5860   -0.2540  -20.4900 C   0  0  0  0  0  0  0  0  0  0  0  0
   -5.0700    0.0060  -21.7870 C   0  0  0  0  0  0  0  0  0  0  0  0
   -3.9730    0.8020  -21.9610 C   0  0  0  0  0  0  0  0  0  0  0  0
   -3.3340    1.3760  -20.8670 C   0  0  0  0  0  0  0  0  0  0  0  0
   -3.7910    1.1550  -19.5980 C   0  0  0  0  0  0  0  0  0  0  0  0
   -4.9240    0.3340  -19.3730 C   0  0  0  0  0  0  0  0  0  0  0  0
   -5.4600    0.0910  -18.0820 C   0  0  0  0  0  0  0  0  0  0  0  0
   -6.5390   -0.6460  -17.8520 N   0  0  0  0  0  0  0  0  0  0  0  0
   -7.1560   -1.1920  -18.9140 C   0  0  0  0  0  0  0  0  0  0  0  0
   -9.1970   -1.7040  -23.0860 C   0  0  1  0  0  0  0  0  0  0  0  0
  -10.7030   -1.5110  -23.1600 C   0  0  0  0  0  0  0  0  0  0  0  0
  -11.5380   -2.2650  -22.3360 C   0  0  0  0  0  0  0  0  0  0  0  0
  -12.8820   -1.9600  -22.2500 C   0  0  0  0  0  0  0  0  0  0  0  0
  -13.8850   -2.8620  -21.1550 Cl  0  0  0  0  0  0  0  0  0  0  0  0
   -8.5210   -1.2870  -24.4040 C   0  0  0  0  0  0  0  0  0  0  0  0
   -8.8330    0.1370  -24.6200 N   0  0  0  0  0  0  0  0  0  0  0  0
  -10.3610    0.3700  -25.1350 S   0  0  2  0  0  0  0  0  0  0  0  0
  -10.5000   -0.2710  -26.4090 O   0  0  0  0  0  0  0  0  0  0  0  0
  -10.6630    1.7650  -25.0280 O   0  0  0  0  0  0  0  0  0  0  0  0
  -11.2950   -0.5130  -23.9430 C   0  0  0  0  0  0  0  0  0  0  0  0
  -12.6480   -0.2190  -23.8490 C   0  0  0  0  0  0  0  0  0  0  0  0
  -13.4420   -0.9370  -22.9780 C   0  0  0  0  0  0  0  0  0  0  0  0
  2  1  2  0
  3  2  1  0
  4  3  1  0
  5  4  1  0
  6  5  2  0
  7  6  1  0
  8  7  2  0
  9  8  1  0
 10  5  1  0
 10  9  2  0
 11 10  1  0
 12 11  2  0
 13 12  1  0
 13  4  2  0
 14  2  1  1
 15 14  1  0
 16 15  2  0
 17 16  1  0
 18 17  1  0
 19 14  1  0
 20 19  1  0
 21 20  1  1
 22 21  2  0
 23 21  2  0
 24 21  1  0
 24 15  1  0
 25 24  2  0
 26 25  1  0
 26 17  2  0
M  END
$$$$

     RDKit          3D

 30 33  0  0  0  0  0  0  0  0999 V2000
  -10.5600    1.9460  -24.5970 O   0  0  0  0  0  0  0  0  0  0  0  0
  -10.1860    0.8200  -24.3280 C   0  0  0  0  0  0  0  0  0  0  0  0
   -8.8770    0.4210  -24.5090 N   0  0  0  0  0  0  0  0  0  0  0  0
   -7.9820    1.2490  -25.2960 C   0  0  0  0  0  0  0  0  0  0  0  0
   -7.1580    2.2580  -24.5160 C   0  0  0  0  0  0  0  0  0  0  0  0
   -6.1780    2.7900  -25.0340 O   0  0  0  0  0  0  0  0  0  0  0  0
   -7.5360    2.5270  -23.2690 N   0  0  0  0  0  0  0  0  0  0  0  0
   -6.7860    3.4170  -22.4040 C   0  0  0  0  0  0  0  0  0  0  0  0
  -11.0790   -0.1510  -23.6650 C   0  0  0  0  0  0  0  0  0  0  0  0
  -12.4390    0.1470  -23.5320 C   0  0  0  0  0  0  0  0  0  0  0  0
  -13.2890   -0.7360  -22.8890 C   0  0  0  0  0  0  0  0  0  0  0  0
  -12.7760   -1.9110  -22.3800 C   0  0  0  0  0  0  0  0  0  0  0  0
  -13.8330   -2.9990  -21.5230 Cl  0  0  0  0  0  0  0  0  0  0  0  0
  -11.4330   -2.2240  -22.4870 C   0  0  0  0  0  0  0  0  0  0  0  0
  -10.5630   -1.3250  -23.1040 C   0  0  0  0  0  0  0  0  0  0  0  0
   -9.0670   -1.5610  -23.0600 C   0  0  1  0  0  0  0  0  0  0  0  0
   -8.4210   -0.9570  -24.3080 C   0  0  0  0  0  0  0  0  0  0  0  0
   -8.4990   -0.8570  -21.8250 C   0  0  0  0  0  0  0  0  0  0  0  0
   -8.9870    0.1860  -21.3840 O   0  0  0  0  0  0  0  0  0  0  0  0
   -7.3980   -1.4390  -21.2910 N   0  0  0  0  0  0  0  0  0  0  0  0
   -6.6300   -0.9780  -20.1930 C   0  0  0  0  0  0  0  0  0  0  0  0
   -5.5340   -0.0910  -20.4400 C   0  0  0  0  0  0  0  0  0  0  0  0
   -5.0500    0.2250  -21.7380 C   0  0  0  0  0  0  0  0  0  0  0  0
   -3.9800    1.0610  -21.9060 C   0  0  0  0  0  0  0  0  0  0  0  0
   -3.3490    1.6340  -20.8090 C   0  0  0  0  0  0  0  0  0  0  0  0
   -3.7760    1.3620  -19.5400 C   0  0  0  0  0  0  0  0  0  0  0  0
   -4.8690    0.4850  -19.3190 C   0  0  0  0  0  0  0  0  0  0  0  0
   -5.3230    0.1250  -18.0270 C   0  0  0  0  0  0  0  0  0  0  0  0
   -6.3260   -0.7130  -17.7970 N   0  0  0  0  0  0  0  0  0  0  0  0
   -6.9470   -1.2440  -18.8600 C   0  0  0  0  0  0  0  0  0  0  0  0
  2  1  2  0
  3  2  1  0
  4  3  1  0
  5  4  1  0
  6  5  2  0
  7  5  1  0
  8  7  1  0
  9  2  1  0
 10  9  2  0
 11 10  1  0
 12 11  2  0
 13 12  1  0
 14 12  1  0
 15 14  2  0
 15  9  1  0
 16 15  1  0
 17 16  1  0
 17  3  1  0
 16 18  1  1
 19 18  2  0
 20 18  1  0
 21 20  1  0
 22 21  1  0
 23 22  2  0
 24 23  1  0
 25 24  2  0
 26 25  1  0
 27 22  1  0
 27 26  2  0
 28 27  1  0
 29 28  2  0
 30 29  1  0
 30 21  2  0
M  END
$$$$

     RDKit          3D

 32 36  0  0  0  0  0  0  0  0999 V2000
  -10.7130    1.8020  -24.7860 O   0  0  0  0  0  0  0  0  0  0  0  0
  -10.2980    0.7170  -24.4240 C   0  0  0  0  0  0  0  0  0  0  0  0
   -9.0010    0.3440  -24.6050 N   0  0  0  0  0  0  0  0  0  0  0  0
   -8.1280    1.1420  -25.4480 C   0  0  0  0  0  0  0  0  0  0  0  0
   -7.4440    2.3230  -24.7760 C   0  0  0  0  0  0  0  0  0  0  0  0
   -6.6050    2.9830  -25.3910 O   0  0  0  0  0  0  0  0  0  0  0  0
   -7.7620    2.5880  -23.5140 N   0  0  0  0  0  0  0  0  0  0  0  0
   -7.0400    3.5700  -22.7220 C   0  0  0  0  0  0  0  0  0  0  0  0
  -11.1700   -0.2460  -23.7270 C   0  0  0  0  0  0  0  0  0  0  0  0
  -12.5450   -0.0200  -23.7130 C   0  0  0  0  0  0  0  0  0  0  0  0
  -13.3900   -0.8870  -23.0480 C   0  0  0  0  0  0  0  0  0  0  0  0
  -12.8570   -1.9930  -22.4190 C   0  0  0  0  0  0  0  0  0  0  0  0
  -13.9180   -3.0660  -21.5540 Cl  0  0  0  0  0  0  0  0  0  0  0  0
  -11.5000   -2.2620  -22.4320 C   0  0  0  0  0  0  0  0  0  0  0  0
  -10.6410   -1.3680  -23.0670 C   0  0  0  0  0  0  0  0  0  0  0  0
   -9.1240   -1.5110  -22.9540 C   0  0  1  0  0  0  0  0  0  0  0  0
   -8.5320   -1.0070  -24.2960 C   0  0  0  0  0  0  0  0  0  0  0  0
   -8.5670   -0.6410  -21.8260 C   0  0  0  0  0  0  0  0  0  0  0  0
   -8.9850    0.4540  -21.4910 O   0  0  0  0  0  0  0  0  0  0  0  0
   -7.5140   -1.2950  -21.2660 N   0  0  0  0  0  0  0  0  0  0  0  0
   -7.2890   -2.6220  -21.8680 C   0  0  0  0  0  0  0  0  0  0  0  0
   -8.6150   -2.9220  -22.5630 C   0  0  0  0  0  0  0  0  0  0  0  0
   -6.7000   -0.7840  -20.2060 C   0  0  0  0  0  0  0  0  0  0  0  0
   -5.5880    0.0580  -20.5030 C   0  0  0  0  0  0  0  0  0  0  0  0
   -5.1640    0.3830  -21.8200 C   0  0  0  0  0  0  0  0  0  0  0  0
   -4.0970    1.2100  -22.0300 C   0  0  0  0  0  0  0  0  0  0  0  0
   -3.4010    1.7580  -20.9570 C   0  0  0  0  0  0  0  0  0  0  0  0
   -3.7700    1.4740  -19.6730 C   0  0  0  0  0  0  0  0  0  0  0  0
   -4.8630    0.6120  -19.4090 C   0  0  0  0  0  0  0  0  0  0  0  0
   -5.2870    0.2750  -18.0940 C   0  0  0  0  0  0  0  0  0  0  0  0
   -6.3220   -0.5130  -17.8230 N   0  0  0  0  0  0  0  0  0  0  0  0
   -6.9970   -1.0210  -18.8660 C   0  0  0  0  0  0  0  0  0  0  0  0
  2  1  2  0
  3  2  1  0
  4  3  1  0
  5  4  1  0
  6  5  2  0
  7  5  1  0
  8  7  1  0
  9  2  1  0
 10  9  2  0
 11 10  1  0
 12 11  2  0
 13 12  1  0
 14 12  1  0
 15 14  2  0
 15  9  1  0
 16 15  1  0
 16 17  1  6
 17  3  1  0
 18 16  1  0
 19 18  2  0
 20 18  1  0
 21 20  1  0
 22 21  1  0
 22 16  1  0
 23 20  1  0
 24 23  1  0
 25 24  2  0
 26 25  1  0
 27 26  2  0
 28 27  1  0
 29 24  1  0
 29 28  2  0
 30 29  1  0
 31 30  2  0
 32 31  1  0
 32 23  2  0
M  END
$$$$

     RDKit          3D

 24 27  0  0  0  0  0  0  0  0999 V2000
   -9.1010   -0.0190  -21.1830 O   0  0  0  0  0  0  0  0  0  0  0  0
   -8.5380   -1.0000  -21.6490 C   0  0  0  0  0  0  0  0  0  0  0  0
   -9.1170   -1.7320  -22.8910 C   0  0  1  0  0  0  0  0  0  0  0  0
  -10.6220   -1.6440  -22.8660 C   0  0  0  0  0  0  0  0  0  0  0  0
  -11.5640   -2.3540  -22.1330 C   0  0  0  0  0  0  0  0  0  0  0  0
  -12.8940   -1.9920  -22.2460 C   0  0  0  0  0  0  0  0  0  0  0  0
  -14.0600   -2.7440  -21.1910 Cl  0  0  0  0  0  0  0  0  0  0  0  0
  -13.3130   -0.9850  -23.1050 C   0  0  0  0  0  0  0  0  0  0  0  0
  -12.3780   -0.3030  -23.8660 C   0  0  0  0  0  0  0  0  0  0  0  0
  -11.0340   -0.6380  -23.7290 C   0  0  0  0  0  0  0  0  0  0  0  0
   -9.9370   -0.0770  -24.3790 N   0  0  0  0  0  0  0  0  0  0  0  0
   -8.7980   -0.9630  -24.1930 C   0  0  0  0  0  0  0  0  0  0  0  0
   -8.6550   -3.2010  -22.9850 C   0  0  0  0  0  0  0  0  0  0  0  0
   -7.3720   -1.4720  -21.1480 N   0  0  0  0  0  0  0  0  0  0  0  0
   -6.6300   -0.9270  -20.0770 C   0  0  0  0  0  0  0  0  0  0  0  0
   -5.5250   -0.0720  -20.3790 C   0  0  0  0  0  0  0  0  0  0  0  0
   -5.1040    0.2370  -21.6990 C   0  0  0  0  0  0  0  0  0  0  0  0
   -4.0650    1.0980  -21.9240 C   0  0  0  0  0  0  0  0  0  0  0  0
   -3.3930    1.6880  -20.8610 C   0  0  0  0  0  0  0  0  0  0  0  0
   -3.7600    1.4220  -19.5710 C   0  0  0  0  0  0  0  0  0  0  0  0
   -4.8310    0.5330  -19.2930 C   0  0  0  0  0  0  0  0  0  0  0  0
   -5.2670    0.2330  -17.9800 C   0  0  0  0  0  0  0  0  0  0  0  0
   -6.2860   -0.5660  -17.6980 N   0  0  0  0  0  0  0  0  0  0  0  0
   -6.9400   -1.1210  -18.7280 C   0  0  0  0  0  0  0  0  0  0  0  0
  2  1  2  0
  3  2  1  0
  4  3  1  0
  5  4  2  0
  6  5  1  0
  7  6  1  0
  8  6  2  0
  9  8  1  0
 10  9  2  0
 10  4  1  0
 11 10  1  0
 12 11  1  0
 12  3  1  0
  3 13  1  6
 14  2  1  0
 15 14  1  0
 16 15  1  0
 17 16  2  0
 18 17  1  0
 19 18  2  0
 20 19  1  0
 21 16  1  0
 21 20  2  0
 22 21  1  0
 23 22  2  0
 24 23  1  0
 24 15  2  0
M  END
$$$$

     RDKit          3D

 17 18  0  0  0  0  0  0  0  0999 V2000
   -7.9520   -5.0300  -21.1360 O   0  0  0  0  0  0  0  0  0  0  0  0
   -5.5490   -0.3380  -18.7020 C   0  0  0  0  0  0  0  0  0  0  0  0
   -5.3570   -1.2340  -19.9010 C   0  0  0  0  0  0  0  0  0  0  0  0
   -5.7230   -4.0730  -19.4880 O   0  0  0  0  0  0  0  0  0  0  0  0
   -6.5240   -2.0410  -20.2340 N   0  0  0  0  0  0  0  0  0  0  0  0
   -7.9720   -0.3110  -21.3700 C   0  0  0  0  0  0  0  0  0  0  0  0
   -9.1650   -0.1230  -22.0560 C   0  0  0  0  0  0  0  0  0  0  0  0
   -6.5050   -0.3750  -17.9710 O   0  0  0  0  0  0  0  0  0  0  0  0
   -4.5650    0.5030  -18.5630 O   0  0  0  0  0  0  0  0  0  0  0  0
   -6.6130   -3.3820  -19.9550 C   0  0  0  0  0  0  0  0  0  0  0  0
   -7.6700   -1.5830  -20.8970 C   0  0  0  0  0  0  0  0  0  0  0  0
   -8.5460   -2.6410  -21.0940 C   0  0  0  0  0  0  0  0  0  0  0  0
   -9.7070   -2.4370  -21.8160 C   0  0  0  0  0  0  0  0  0  0  0  0
   -8.0080   -3.8390  -20.3580 C   0  0  0  0  0  0  0  0  0  0  0  0
  -10.0460   -1.1780  -22.2920 C   0  0  0  0  0  0  0  0  0  0  0  0
  -11.3630   -0.9560  -23.0070 C   0  0  0  0  0  0  0  0  0  0  0  0
  -12.5270   -1.7210  -22.3600 C   0  0  0  0  0  0  0  0  0  0  0  0
  3  2  1  0
  5  3  1  0
  7  6  1  0
  8  2  2  0
  9  2  1  0
 10  5  1  0
 10  4  1  0
 11  6  2  0
 11  5  1  0
 12 11  1  0
 13 12  2  0
 14 12  1  0
 14 10  2  0
 14  1  1  0
 15 13  1  0
 15  7  2  0
 16 15  1  0
 17 16  1  0
M  CHG  1   9  -1
M  END
$$$$

     RDKit          3D

 26 28  0  0  0  0  0  0  0  0999 V2000
   -5.6490   -4.2260  -20.9080 O   0  0  0  0  0  0  0  0  0  0  0  0
   -6.3630   -3.4940  -21.5800 C   0  0  0  0  0  0  0  0  0  0  0  0
   -6.4140   -3.5830  -22.9260 N   0  0  0  0  0  0  0  0  0  0  0  0
   -6.6240   -4.8150  -23.6580 C   0  0  0  0  0  0  0  0  0  0  0  0
   -5.6170   -5.9010  -23.4500 C   0  0  0  0  0  0  0  0  0  0  0  0
   -4.4670   -6.1650  -24.1300 C   0  0  0  0  0  0  0  0  0  0  0  0
   -5.8460   -6.9290  -22.5940 N   0  0  0  0  0  0  0  0  0  0  0  0
   -4.9020   -7.8260  -22.7390 N   0  0  0  0  0  0  0  0  0  0  0  0
   -4.0640   -7.3640  -23.6870 N   0  0  0  0  0  0  0  0  0  0  0  0
   -2.9240   -8.1440  -24.1530 C   0  0  0  0  0  0  0  0  0  0  0  0
   -7.2100   -2.5930  -20.9960 N   0  0  0  0  0  0  0  0  0  0  0  0
   -7.1800   -2.4170  -19.5390 C   0  0  0  0  0  0  0  0  0  0  0  0
   -6.3530   -1.2330  -19.0940 C   0  0  0  0  0  0  0  0  0  0  0  0
   -6.5740   -0.6150  -17.8760 C   0  0  0  0  0  0  0  0  0  0  0  0
   -5.8700    0.4330  -17.4280 N   0  0  0  0  0  0  0  0  0  0  0  0
   -4.8980    0.9030  -18.2210 C   0  0  0  0  0  0  0  0  0  0  0  0
   -4.6060    0.3700  -19.4560 C   0  0  0  0  0  0  0  0  0  0  0  0
   -5.3440   -0.7150  -19.8910 C   0  0  0  0  0  0  0  0  0  0  0  0
   -8.2820   -1.8770  -21.7080 C   0  0  0  0  0  0  0  0  0  0  0  0
   -9.2370   -2.8130  -22.4500 C   0  0  0  0  0  0  0  0  0  0  0  0
  -10.5120   -2.1500  -22.9120 C   0  0  0  0  0  0  0  0  0  0  0  0
  -11.7330   -2.5100  -22.3570 C   0  0  0  0  0  0  0  0  0  0  0  0
  -12.9040   -1.8760  -22.7440 C   0  0  0  0  0  0  0  0  0  0  0  0
  -12.8690   -0.8860  -23.7050 C   0  0  0  0  0  0  0  0  0  0  0  0
  -11.6650   -0.5350  -24.2840 C   0  0  0  0  0  0  0  0  0  0  0  0
  -10.4930   -1.1610  -23.8880 C   0  0  0  0  0  0  0  0  0  0  0  0
  2  1  2  0
  3  2  1  0
  4  3  1  0
  5  4  1  0
  6  5  2  0
  7  5  1  0
  8  7  2  0
  9  8  1  0
  9  6  1  0
 10  9  1  0
 11  2  1  0
 12 11  1  0
 13 12  1  0
 14 13  2  0
 15 14  1  0
 16 15  2  0
 17 16  1  0
 18 13  1  0
 18 17  2  0
 19 11  1  0
 20 19  1  0
 21 20  1  0
 22 21  2  0
 23 22  1  0
 24 23  2  0
 25 24  1  0
 26 25  2  0
 26 21  1  0
M  END
$$$$

     RDKit          3D

 31 34  0  0  0  0  0  0  0  0999 V2000
   -9.1260    0.2400  -21.5210 O   0  0  0  0  0  0  0  0  0  0  0  0
   -8.7390   -0.8920  -21.7880 C   0  0  0  0  0  0  0  0  0  0  0  0
   -7.9000   -1.5260  -20.9500 N   0  0  0  0  0  0  0  0  0  0  0  0
   -6.8960   -1.0950  -20.0630 C   0  0  0  0  0  0  0  0  0  0  0  0
   -5.8920   -0.1540  -20.4610 C   0  0  0  0  0  0  0  0  0  0  0  0
   -5.5440    0.1020  -21.8130 C   0  0  0  0  0  0  0  0  0  0  0  0
   -4.4640    0.8780  -22.1300 C   0  0  0  0  0  0  0  0  0  0  0  0
   -3.6870    1.4500  -21.1330 C   0  0  0  0  0  0  0  0  0  0  0  0
   -3.9930    1.2570  -19.8150 C   0  0  0  0  0  0  0  0  0  0  0  0
   -5.0980    0.4510  -19.4440 C   0  0  0  0  0  0  0  0  0  0  0  0
   -5.3920    0.1290  -18.0990 C   0  0  0  0  0  0  0  0  0  0  0  0
   -6.3270   -0.7300  -17.7280 N   0  0  0  0  0  0  0  0  0  0  0  0
   -7.0280   -1.3320  -18.6940 C   0  0  0  0  0  0  0  0  0  0  0  0
   -9.3220   -1.6660  -23.0000 C   0  0  1  0  0  0  0  0  0  0  0  0
  -10.8190   -1.3720  -23.0590 C   0  0  0  0  0  0  0  0  0  0  0  0
  -11.6920   -2.0740  -22.2300 C   0  0  0  0  0  0  0  0  0  0  0  0
  -13.0350   -1.7500  -22.2260 C   0  0  0  0  0  0  0  0  0  0  0  0
  -14.0810   -2.5390  -21.0770 Cl  0  0  0  0  0  0  0  0  0  0  0  0
  -13.5540   -0.7770  -23.0540 C   0  0  0  0  0  0  0  0  0  0  0  0
  -12.7100   -0.0970  -23.9120 C   0  0  0  0  0  0  0  0  0  0  0  0
  -11.3530   -0.3820  -23.8990 C   0  0  0  0  0  0  0  0  0  0  0  0
  -10.5820    0.4190  -24.7060 O   0  0  0  0  0  0  0  0  0  0  0  0
   -9.1430    0.2850  -24.6050 C   0  0  0  0  0  0  0  0  0  0  0  0
   -8.6910   -1.1270  -24.3030 C   0  0  0  0  0  0  0  0  0  0  0  0
   -9.1070   -3.1980  -22.9240 C   0  0  0  0  0  0  0  0  0  0  0  0
   -7.7870   -3.5610  -23.3090 O   0  0  0  0  0  0  0  0  0  0  0  0
   -7.7600   -4.7200  -24.1290 C   0  0  0  0  0  0  0  0  0  0  0  0
   -7.0250   -5.8890  -23.5110 C   0  0  0  0  0  0  0  0  0  0  0  0
   -7.5960   -6.9740  -23.4180 O   0  0  0  0  0  0  0  0  0  0  0  0
   -5.7550   -5.7230  -23.1650 N   0  0  0  0  0  0  0  0  0  0  0  0
   -4.8570   -6.8420  -22.9340 C   0  0  0  0  0  0  0  0  0  0  0  0
  2  1  2  0
  3  2  1  0
  4  3  1  0
  5  4  1  0
  6  5  2  0
  7  6  1  0
  8  7  2  0
  9  8  1  0
 10  5  1  0
 10  9  2  0
 11 10  1  0
 12 11  2  0
 13 12  1  0
 13  4  2  0
 14  2  1  0
 15 14  1  0
 16 15  2  0
 17 16  1  0
 18 17  1  0
 19 17  2  0
 20 19  1  0
 21 20  2  0
 21 15  1  0
 22 21  1  0
 23 22  1  0
 24 23  1  0
 24 14  1  0
 14 25  1  1
 26 25  1  0
 27 26  1  0
 28 27  1  0
 29 28  2  0
 30 28  1  0
 31 30  1  0
M  END
$$$$

     RDKit          3D

 17 18  0  0  0  0  0  0  0  0999 V2000
  -13.2270   -2.9100  -21.7880 Cl  0  0  0  0  0  0  0  0  0  0  0  0
  -12.0040   -2.0690  -22.6950 C   0  0  0  0  0  0  0  0  0  0  0  0
  -12.3850   -1.1440  -23.6380 C   0  0  0  0  0  0  0  0  0  0  0  0
  -11.4070   -0.5470  -24.4190 C   0  0  0  0  0  0  0  0  0  0  0  0
  -10.0700   -0.8510  -24.2150 C   0  0  0  0  0  0  0  0  0  0  0  0
  -10.6760   -2.3810  -22.4780 C   0  0  0  0  0  0  0  0  0  0  0  0
   -9.6880   -1.7420  -23.2240 C   0  0  0  0  0  0  0  0  0  0  0  0
   -8.2340   -1.9070  -22.8550 C   0  0  0  0  0  0  0  0  0  0  0  0
   -7.9200   -1.1190  -21.5990 C   0  0  0  0  0  0  0  0  0  0  0  0
   -8.6810   -0.2620  -21.1530 O   0  0  0  0  0  0  0  0  0  0  0  0
   -6.7350   -1.4440  -21.0010 N   0  0  0  0  0  0  0  0  0  0  0  0
   -6.3270   -0.8980  -19.7680 C   0  0  0  0  0  0  0  0  0  0  0  0
   -5.3520    0.0430  -19.5330 C   0  0  0  0  0  0  0  0  0  0  0  0
   -4.5110    0.8530  -20.4650 C   0  0  0  0  0  0  0  0  0  0  0  0
   -6.8220   -1.2600  -18.5150 C   0  0  0  0  0  0  0  0  0  0  0  0
   -6.1890   -0.6000  -17.5530 N   0  0  0  0  0  0  0  0  0  0  0  0
   -5.2840    0.1930  -18.1990 N   0  0  0  0  0  0  0  0  0  0  0  0
  2  1  1  0
  3  2  2  0
  4  3  1  0
  5  4  2  0
  6  2  1  0
  7  6  2  0
  7  5  1  0
  8  7  1  0
  9  8  1  0
 10  9  2  0
 11  9  1  0
 12 11  1  0
 13 12  2  0
 14 13  1  0
 15 12  1  0
 16 15  2  0
 17 16  1  0
 17 13  1  0
M  END
$$$$

     RDKit          3D

 16 17  0  0  0  0  0  0  0  0999 V2000
   -6.6690   -4.0470  -21.2750 N   0  0  0  0  0  0  0  0  0  0  0  0
   -6.9050   -3.6440  -18.8490 C   0  0  0  0  0  0  0  0  0  0  0  0
   -5.4520   -5.2450  -19.8280 O   0  0  0  0  0  0  0  0  0  0  0  0
   -6.2840   -4.3690  -20.0230 C   0  0  0  0  0  0  0  0  0  0  0  0
   -8.2220   -6.5610  -27.7150 C   0  0  0  0  0  0  0  0  0  0  0  0
   -6.2000   -4.8690  -22.3930 C   0  0  0  0  0  0  0  0  0  0  0  0
   -7.3460   -5.2230  -23.3080 C   0  0  0  0  0  0  0  0  0  0  0  0
   -8.5060   -3.1910  -22.7190 C   0  0  0  0  0  0  0  0  0  0  0  0
   -7.4420   -2.8650  -21.6840 C   0  0  0  0  0  0  0  0  0  0  0  0
   -8.0650   -3.7150  -25.1300 C   0  0  0  0  0  0  0  0  0  0  0  0
   -8.3100   -4.8270  -25.9890 C   0  0  0  0  0  0  0  0  0  0  0  0
   -9.1780   -5.8710  -25.7360 C   0  0  0  0  0  0  0  0  0  0  0  0
   -9.0020   -6.9110  -26.6690 C   0  0  0  0  0  0  0  0  0  0  0  0
   -7.9330   -3.9830  -23.8070 N   0  0  0  0  0  0  0  0  0  0  0  0
   -7.9880   -2.5780  -25.5900 O   0  0  0  0  0  0  0  0  0  0  0  0
   -7.5100   -5.0360  -27.5010 S   0  0  0  0  0  0  0  0  0  0  0  0
  4  3  2  0
  4  2  1  0
  4  1  1  0
  6  1  1  0
  7  6  1  0
  9  8  1  0
  9  1  1  0
 11 10  1  0
 12 11  2  0
 13  5  2  0
 13 12  1  0
 14 10  1  0
 14  8  1  0
 14  7  1  0
 15 10  2  0
 16  5  1  0
 16 11  1  0
M  END
$$$$

     RDKit          3D

 33 37  0  0  0  0  0  0  0  0999 V2000
  -10.8650    1.9450  -24.6190 O   0  0  0  0  0  0  0  0  0  0  0  0
  -10.4460    0.8440  -24.3210 C   0  0  0  0  0  0  0  0  0  0  0  0
   -9.1630    0.4710  -24.5590 N   0  0  0  0  0  0  0  0  0  0  0  0
   -8.2940    1.3090  -25.3640 C   0  0  0  0  0  0  0  0  0  0  0  0
   -7.6800    2.5150  -24.6650 C   0  0  0  0  0  0  0  0  0  0  0  0
   -7.0050    3.3180  -25.3040 O   0  0  0  0  0  0  0  0  0  0  0  0
   -7.8750    2.6440  -23.3580 N   0  0  0  0  0  0  0  0  0  0  0  0
   -7.1320    3.5980  -22.5550 C   0  0  0  0  0  0  0  0  0  0  0  0
  -11.2990   -0.1430  -23.6420 C   0  0  0  0  0  0  0  0  0  0  0  0
  -12.6710    0.0930  -23.5730 C   0  0  0  0  0  0  0  0  0  0  0  0
  -13.4970   -0.7800  -22.8960 C   0  0  0  0  0  0  0  0  0  0  0  0
  -12.9520   -1.9000  -22.3070 C   0  0  0  0  0  0  0  0  0  0  0  0
  -13.9850   -2.9580  -21.3930 Cl  0  0  0  0  0  0  0  0  0  0  0  0
  -11.6000   -2.1840  -22.3820 C   0  0  0  0  0  0  0  0  0  0  0  0
  -10.7570   -1.2850  -23.0290 C   0  0  0  0  0  0  0  0  0  0  0  0
   -9.2350   -1.4170  -22.9400 C   0  0  1  0  0  0  0  0  0  0  0  0
   -8.6840   -0.8870  -24.2910 C   0  0  0  0  0  0  0  0  0  0  0  0
   -8.6430   -0.5730  -21.8030 C   0  0  0  0  0  0  0  0  0  0  0  0
   -9.0090    0.5400  -21.4700 O   0  0  0  0  0  0  0  0  0  0  0  0
   -7.6130   -1.2650  -21.2430 N   0  0  0  0  0  0  0  0  0  0  0  0
   -7.3970   -2.5750  -21.8810 C   0  0  0  0  0  0  0  0  0  0  0  0
   -8.7210   -2.8400  -22.6000 C   0  0  0  0  0  0  0  0  0  0  0  0
   -6.7930   -0.7890  -20.1710 C   0  0  0  0  0  0  0  0  0  0  0  0
   -5.6870    0.0700  -20.4530 C   0  0  0  0  0  0  0  0  0  0  0  0
   -5.3110    0.4560  -21.7680 C   0  0  0  0  0  0  0  0  0  0  0  0
   -4.2500    1.3010  -21.9440 C   0  0  0  0  0  0  0  0  0  0  0  0
   -3.8870    1.8710  -23.5510 Cl  0  0  0  0  0  0  0  0  0  0  0  0
   -3.5000    1.7790  -20.8790 C   0  0  0  0  0  0  0  0  0  0  0  0
   -3.8400    1.4290  -19.6040 C   0  0  0  0  0  0  0  0  0  0  0  0
   -4.9380    0.5730  -19.3530 C   0  0  0  0  0  0  0  0  0  0  0  0
   -5.3390    0.1860  -18.0460 C   0  0  0  0  0  0  0  0  0  0  0  0
   -6.3710   -0.6070  -17.7880 N   0  0  0  0  0  0  0  0  0  0  0  0
   -7.0650   -1.0740  -18.8360 C   0  0  0  0  0  0  0  0  0  0  0  0
  2  1  2  0
  3  2  1  0
  4  3  1  0
  5  4  1  0
  6  5  2  0
  7  5  1  0
  8  7  1  0
  9  2  1  0
 10  9  2  0
 11 10  1  0
 12 11  2  0
 13 12  1  0
 14 12  1  0
 15 14  2  0
 15  9  1  0
 16 15  1  0
 16 17  1  6
 17  3  1  0
 18 16  1  0
 19 18  2  0
 20 18  1  0
 21 20  1  0
 22 21  1  0
 22 16  1  0
 23 20  1  0
 24 23  1  0
 25 24  2  0
 26 25  1  0
 27 26  1  0
 28 26  2  0
 29 28  1  0
 30 24  1  0
 30 29  2  0
 31 30  1  0
 32 31  2  0
 33 32  1  0
 33 23  2  0
M  END
$$$$

     RDKit          3D

 24 26  0  0  0  0  0  0  0  0999 V2000
   -9.0640    0.1750  -21.6510 O   0  0  0  0  0  0  0  0  0  0  0  0
   -8.7730   -0.7660  -22.3770 C   0  0  0  0  0  0  0  0  0  0  0  0
   -7.5740   -1.6570  -22.0530 C   0  0  0  0  0  0  0  0  0  0  0  0
   -7.0430   -1.3640  -20.7420 N   0  0  0  0  0  0  0  0  0  0  0  0
   -5.9720   -0.5940  -20.3920 C   0  0  0  0  0  0  0  0  0  0  0  0
   -5.0040    0.0820  -21.1160 C   0  0  0  0  0  0  0  0  0  0  0  0
   -4.1150    0.8830  -20.4120 C   0  0  0  0  0  0  0  0  0  0  0  0
   -4.1920    0.9890  -19.0270 C   0  0  0  0  0  0  0  0  0  0  0  0
   -5.1470    0.2830  -18.3080 C   0  0  0  0  0  0  0  0  0  0  0  0
   -6.0480   -0.5160  -19.0050 C   0  0  0  0  0  0  0  0  0  0  0  0
   -7.1260   -1.2600  -18.5790 N   0  0  0  0  0  0  0  0  0  0  0  0
   -7.7120   -1.7640  -19.6300 N   0  0  0  0  0  0  0  0  0  0  0  0
   -9.4330   -0.9820  -23.5470 N   0  0  0  0  0  0  0  0  0  0  0  0
   -9.8140    0.2420  -24.2940 C   0  0  0  0  0  0  0  0  0  0  0  0
   -8.6560    0.8520  -25.0400 C   0  0  0  0  0  0  0  0  0  0  0  0
   -9.8420   -2.2650  -24.1490 C   0  0  1  0  0  0  0  0  0  0  0  0
   -9.0720   -3.4670  -23.6000 C   0  0  0  0  0  0  0  0  0  0  0  0
   -8.1780   -4.1250  -24.6400 C   0  0  0  0  0  0  0  0  0  0  0  0
  -11.3410   -2.4750  -24.1110 C   0  0  0  0  0  0  0  0  0  0  0  0
  -12.0580   -2.6330  -25.2890 C   0  0  0  0  0  0  0  0  0  0  0  0
  -13.4150   -2.9080  -25.2580 C   0  0  0  0  0  0  0  0  0  0  0  0
  -14.0710   -3.0260  -24.0540 C   0  0  0  0  0  0  0  0  0  0  0  0
  -13.3750   -2.8570  -22.8750 C   0  0  0  0  0  0  0  0  0  0  0  0
  -12.0180   -2.5800  -22.9020 C   0  0  0  0  0  0  0  0  0  0  0  0
  2  1  2  0
  3  2  1  0
  4  3  1  0
  5  4  1  0
  6  5  2  0
  7  6  1  0
  8  7  2  0
  9  8  1  0
 10  5  1  0
 10  9  2  0
 11 10  1  0
 12 11  2  0
 12  4  1  0
 13  2  1  0
 14 13  1  0
 15 14  1  0
 16 13  1  0
 16 17  1  1
 18 17  1  0
 19 16  1  0
 20 19  2  0
 21 20  1  0
 22 21  2  0
 23 22  1  0
 24 23  2  0
 24 19  1  0
M  END
$$$$

     RDKit          3D

 18 19  0  0  0  0  0  0  0  0999 V2000
   -6.8280   -3.5200  -18.8280 C   0  0  0  0  0  0  0  0  0  0  0  0
   -6.2470   -4.2880  -20.0020 C   0  0  0  0  0  0  0  0  0  0  0  0
   -5.4620   -5.2040  -19.8140 O   0  0  0  0  0  0  0  0  0  0  0  0
   -6.7350   -4.0060  -21.2270 N   0  0  0  0  0  0  0  0  0  0  0  0
   -6.7410   -5.0720  -22.2430 C   0  0  0  0  0  0  0  0  0  0  0  0
   -6.5510   -4.5060  -23.6460 C   0  0  0  0  0  0  0  0  0  0  0  0
   -7.5040   -2.7850  -21.5310 C   0  0  0  0  0  0  0  0  0  0  0  0
   -7.2650   -2.3310  -22.9620 C   0  0  0  0  0  0  0  0  0  0  0  0
   -7.5110   -3.4260  -23.9100 N   0  0  2  0  0  0  0  0  0  0  0  0
   -8.9070   -3.9010  -23.8700 C   0  0  0  0  0  0  0  0  0  0  0  0
   -9.9270   -2.8370  -24.1980 C   0  0  0  0  0  0  0  0  0  0  0  0
  -11.0560   -2.6610  -23.4020 C   0  0  0  0  0  0  0  0  0  0  0  0
  -11.9520   -1.6550  -23.7060 C   0  0  0  0  0  0  0  0  0  0  0  0
  -13.4460   -1.5530  -22.8150 Cl  0  0  0  0  0  0  0  0  0  0  0  0
  -11.7430   -0.7830  -24.7560 C   0  0  0  0  0  0  0  0  0  0  0  0
   -9.7300   -1.9950  -25.2870 C   0  0  0  0  0  0  0  0  0  0  0  0
  -10.6210   -0.9680  -25.5500 C   0  0  0  0  0  0  0  0  0  0  0  0
  -10.3710   -0.1380  -26.6000 O   0  0  0  0  0  0  0  0  0  0  0  0
  2  1  1  0
  3  2  2  0
  4  2  1  0
  5  4  1  0
  6  5  1  0
  7  4  1  0
  8  7  1  0
  9  8  1  0
  9  6  1  0
  9 10  1  1
 11 10  1  0
 12 11  2  0
 13 12  1  0
 14 13  1  0
 15 13  2  0
 16 11  1  0
 17 15  1  0
 17 16  2  0
 18 17  1  0
M  CHG  1   9   1
M  END
$$$$

     RDKit          3D

 24 26  0  0  0  0  0  0  0  0999 V2000
  -13.7040   -2.8470  -21.6370 Cl  0  0  0  0  0  0  0  0  0  0  0  0
  -12.3970   -2.1280  -22.5220 C   0  0  0  0  0  0  0  0  0  0  0  0
  -12.6280   -1.1060  -23.4330 C   0  0  0  0  0  0  0  0  0  0  0  0
  -14.2400   -0.6160  -23.8380 Cl  0  0  0  0  0  0  0  0  0  0  0  0
  -11.5630   -0.4520  -24.0210 C   0  0  0  0  0  0  0  0  0  0  0  0
  -10.2710   -0.8300  -23.7110 C   0  0  0  0  0  0  0  0  0  0  0  0
  -11.1030   -2.5180  -22.2330 C   0  0  0  0  0  0  0  0  0  0  0  0
  -10.0240   -1.8640  -22.8190 C   0  0  0  0  0  0  0  0  0  0  0  0
   -8.6130   -2.2600  -22.4550 C   0  0  1  0  0  0  0  0  0  0  0  0
   -7.8190   -2.6940  -23.5560 O   0  0  0  0  0  0  0  0  0  0  0  0
   -7.1720   -1.6220  -24.2530 C   0  0  0  0  0  0  0  0  0  0  0  0
   -7.9680   -1.2530  -21.5000 C   0  0  0  0  0  0  0  0  0  0  0  0
   -8.5040   -0.1650  -21.2790 O   0  0  0  0  0  0  0  0  0  0  0  0
   -6.8510   -1.6830  -20.8770 N   0  0  0  0  0  0  0  0  0  0  0  0
   -6.1880   -1.0720  -19.8070 C   0  0  0  0  0  0  0  0  0  0  0  0
   -5.1370   -0.1490  -20.0920 C   0  0  0  0  0  0  0  0  0  0  0  0
   -4.6580    0.1230  -21.3990 C   0  0  0  0  0  0  0  0  0  0  0  0
   -3.6750    1.0460  -21.6080 C   0  0  0  0  0  0  0  0  0  0  0  0
   -3.1170    1.7380  -20.5430 C   0  0  0  0  0  0  0  0  0  0  0  0
   -3.5420    1.5100  -19.2660 C   0  0  0  0  0  0  0  0  0  0  0  0
   -4.5660    0.5670  -19.0060 C   0  0  0  0  0  0  0  0  0  0  0  0
   -5.0830    0.3180  -17.7140 C   0  0  0  0  0  0  0  0  0  0  0  0
   -6.0550   -0.5420  -17.4500 N   0  0  0  0  0  0  0  0  0  0  0  0
   -6.5780   -1.2180  -18.4780 C   0  0  0  0  0  0  0  0  0  0  0  0
  2  1  1  0
  3  2  2  0
  4  3  1  0
  5  3  1  0
  6  5  2  0
  7  2  1  0
  8  7  2  0
  8  6  1  0
  9  8  1  0
  9 10  1  6
 11 10  1  0
 12  9  1  0
 13 12  2  0
 14 12  1  0
 15 14  1  0
 16 15  1  0
 17 16  2  0
 18 17  1  0
 19 18  2  0
 20 19  1  0
 21 20  2  0
 21 16  1  0
 22 21  1  0
 23 22  2  0
 24 23  1  0
 24 15  2  0
M  END
$$$$

     RDKit          3D

 34 36  0  0  0  0  0  0  0  0999 V2000
  -12.9460    5.3030  -24.3000 F   0  0  0  0  0  0  0  0  0  0  0  0
  -12.6880    4.0440  -23.8480 C   0  0  0  0  0  0  0  0  0  0  0  0
  -11.4800    3.4670  -24.1780 C   0  0  0  0  0  0  0  0  0  0  0  0
  -13.6390    3.4150  -23.0920 C   0  0  0  0  0  0  0  0  0  0  0  0
  -13.3690    2.1280  -22.6520 C   0  0  0  0  0  0  0  0  0  0  0  0
  -12.1610    1.5200  -22.9640 C   0  0  0  0  0  0  0  0  0  0  0  0
  -11.2020    2.1800  -23.7230 C   0  0  0  0  0  0  0  0  0  0  0  0
   -9.8800    1.5190  -24.0440 C   0  0  0  0  0  0  0  0  0  0  0  0
   -8.6900    2.0980  -23.2790 C   0  0  0  0  0  0  0  0  0  0  0  0
   -7.7360    1.0700  -22.8790 N   0  0  0  0  0  0  0  0  0  0  0  0
   -7.9390    0.2970  -21.8110 C   0  0  0  0  0  0  0  0  0  0  0  0
   -8.9160    0.4120  -21.0820 O   0  0  0  0  0  0  0  0  0  0  0  0
   -6.8650   -0.7730  -21.5440 C   0  0  1  0  0  0  0  0  0  0  0  0
   -6.2200   -0.6060  -20.1720 C   0  0  0  0  0  0  0  0  0  0  0  0
   -5.0850    0.1790  -20.0120 C   0  0  0  0  0  0  0  0  0  0  0  0
   -4.6180    0.4770  -18.7440 C   0  0  0  0  0  0  0  0  0  0  0  0
   -5.2960   -0.0420  -17.6590 C   0  0  0  0  0  0  0  0  0  0  0  0
   -6.3740   -0.8280  -17.7730 N   0  0  0  0  0  0  0  0  0  0  0  0
   -6.8100   -1.0950  -19.0130 C   0  0  0  0  0  0  0  0  0  0  0  0
   -7.3390   -2.1440  -21.8810 N   0  0  0  0  0  0  0  0  0  0  0  0
   -6.5480   -3.2340  -21.6360 C   0  0  0  0  0  0  0  0  0  0  0  0
   -7.1430   -4.6180  -21.8350 C   0  0  0  0  0  0  0  0  0  0  0  0
   -6.9810   -5.5130  -20.5960 C   0  0  0  0  0  0  0  0  0  0  0  0
   -5.3860   -3.1180  -21.2640 O   0  0  0  0  0  0  0  0  0  0  0  0
   -8.6100   -2.2600  -22.5500 C   0  0  0  0  0  0  0  0  0  0  0  0
   -9.7730   -2.5350  -21.8290 C   0  0  0  0  0  0  0  0  0  0  0  0
  -10.9890   -2.6560  -22.4850 C   0  0  0  0  0  0  0  0  0  0  0  0
  -11.0800   -2.5080  -23.8690 C   0  0  0  0  0  0  0  0  0  0  0  0
  -12.4120   -2.6600  -24.6190 C   0  0  1  0  0  0  0  0  0  0  0  0
  -12.2550   -3.7010  -25.7350 C   0  0  0  0  0  0  0  0  0  0  0  0
  -13.5680   -3.1060  -23.7100 C   0  0  0  0  0  0  0  0  0  0  0  0
  -12.8110   -1.3220  -25.2510 C   0  0  0  0  0  0  0  0  0  0  0  0
   -9.9140   -2.2240  -24.5780 C   0  0  0  0  0  0  0  0  0  0  0  0
   -8.6920   -2.1080  -23.9360 C   0  0  0  0  0  0  0  0  0  0  0  0
  2  1  1  0
  3  2  2  0
  4  2  1  0
  5  4  2  0
  6  5  1  0
  7  6  2  0
  7  3  1  0
  8  7  1  0
  9  8  1  0
 10  9  1  0
 11 10  1  0
 12 11  2  0
 13 11  1  0
 14 13  1  0
 15 14  2  0
 16 15  1  0
 17 16  2  0
 18 17  1  0
 19 18  2  0
 19 14  1  0
 13 20  1  1
 21 20  1  0
 22 21  1  0
 23 22  1  0
 24 21  2  0
 25 20  1  0
 26 25  2  0
 27 26  1  0
 28 27  2  0
 29 28  1  0
 29 30  1  6
 31 29  1  0
 32 29  1  0
 33 28  1  0
 34 33  2  0
 34 25  1  0
M  END
$$$$

     RDKit          3D

 17 19  0  0  0  0  0  0  0  0999 V2000
   -9.3040   -0.0790  -21.4300 O   0  0  0  0  0  0  0  0  0  0  0  0
   -8.8000   -1.0540  -21.9850 C   0  0  0  0  0  0  0  0  0  0  0  0
   -9.4540   -1.7340  -23.1550 C   0  0  1  0  0  0  0  0  0  0  0  0
  -10.4980   -2.7710  -22.7270 C   0  0  0  0  0  0  0  0  0  0  0  0
  -11.8430   -2.1000  -23.0670 C   0  0  2  0  0  0  0  0  0  0  0  0
  -13.0100   -2.2570  -22.1480 C   0  0  0  0  0  0  0  0  0  0  0  0
  -13.0100   -2.9290  -23.4960 C   0  0  0  0  0  0  0  0  0  0  0  0
  -11.6090   -0.7270  -23.7420 C   0  0  0  0  0  0  0  0  0  0  0  0
  -10.1210   -0.7430  -24.1300 C   0  0  0  0  0  0  0  0  0  0  0  0
   -7.6300   -1.6060  -21.6040 N   0  0  0  0  0  0  0  0  0  0  0  0
   -6.8340   -1.1120  -20.5510 C   0  0  0  0  0  0  0  0  0  0  0  0
   -5.5840   -0.5370  -20.8420 C   0  0  0  0  0  0  0  0  0  0  0  0
   -5.0700   -0.4090  -22.2560 C   0  0  0  0  0  0  0  0  0  0  0  0
   -7.2710   -1.1370  -19.2260 C   0  0  0  0  0  0  0  0  0  0  0  0
   -6.5630   -0.6320  -18.2080 N   0  0  0  0  0  0  0  0  0  0  0  0
   -5.3740   -0.0900  -18.4970 C   0  0  0  0  0  0  0  0  0  0  0  0
   -4.8530   -0.0260  -19.7750 C   0  0  0  0  0  0  0  0  0  0  0  0
  2  1  2  0
  3  2  1  1
  4  3  1  0
  5  4  1  1
  6  5  1  0
  7  6  1  0
  7  5  1  0
  8  5  1  0
  9  8  1  0
  9  3  1  0
 10  2  1  0
 11 10  1  0
 12 11  2  0
 13 12  1  0
 14 11  1  0
 15 14  2  0
 16 15  1  0
 17 12  1  0
 17 16  2  0
M  END
$$$$

     RDKit          3D

 15 16  0  0  0  0  0  0  0  0999 V2000
   -9.7900   -1.6660  -25.2440 C   0  0  0  0  0  0  0  0  0  0  0  0
  -11.5430   -2.8830  -23.9940 C   0  0  0  0  0  0  0  0  0  0  0  0
  -12.5610   -2.7910  -22.8970 C   0  0  0  0  0  0  0  0  0  0  0  0
  -13.5480   -1.6710  -23.1610 C   0  0  0  0  0  0  0  0  0  0  0  0
  -12.8110   -0.3200  -23.4100 C   0  0  0  0  0  0  0  0  0  0  0  0
  -13.4030    0.8990  -23.0240 C   0  0  0  0  0  0  0  0  0  0  0  0
  -12.7280    2.1030  -23.2420 C   0  0  0  0  0  0  0  0  0  0  0  0
  -11.4540    2.0690  -23.8420 C   0  0  0  0  0  0  0  0  0  0  0  0
  -10.8640    0.8680  -24.2190 C   0  0  0  0  0  0  0  0  0  0  0  0
  -11.5440   -0.3460  -23.9960 C   0  0  0  0  0  0  0  0  0  0  0  0
  -10.9440   -1.6400  -24.3800 N   0  0  0  0  0  0  0  0  0  0  0  0
  -11.5620    4.9400  -23.9110 N   0  0  0  0  0  0  0  0  0  0  0  0
  -10.0300    3.5130  -25.5160 O   0  0  0  0  0  0  0  0  0  0  0  0
   -9.3120    3.6800  -23.3780 O   0  0  0  0  0  0  0  0  0  0  0  0
  -10.5490    3.5940  -24.1560 S   0  0  2  0  0  0  0  0  0  0  0  0
  3  2  1  0
  4  3  1  0
  5  4  1  0
  6  5  1  0
  7  6  2  0
  8  7  1  0
  9  8  2  0
 10  5  2  0
 10  9  1  0
 11 10  1  0
 11  2  1  0
 11  1  1  0
 15 12  1  6
 15  8  1  0
 15 14  2  0
 15 13  2  0
M  END
$$$$

     RDKit          3D

 32 35  0  0  0  0  0  0  0  0999 V2000
   -6.5620   -3.0970  -21.8260 C   0  0  0  0  0  0  0  0  0  0  0  0
   -7.3260   -3.8290  -22.7900 C   0  0  0  0  0  0  0  0  0  0  0  0
   -6.7210   -5.0440  -23.4850 C   0  0  0  0  0  0  0  0  0  0  0  0
   -5.9770   -6.0430  -22.8210 C   0  0  0  0  0  0  0  0  0  0  0  0
   -5.7530   -6.0030  -21.3130 C   0  0  0  0  0  0  0  0  0  0  0  0
   -5.4320   -7.1120  -23.5520 C   0  0  0  0  0  0  0  0  0  0  0  0
   -8.8920   -0.3610  -20.9380 O   0  0  0  0  0  0  0  0  0  0  0  0
   -8.3990   -1.5030  -21.5510 C   0  0  0  0  0  0  0  0  0  0  0  0
   -6.3460   -1.2220  -20.1990 C   0  0  0  0  0  0  0  0  0  0  0  0
   -6.8090   -1.1860  -18.8750 C   0  0  0  0  0  0  0  0  0  0  0  0
   -4.8680    0.1280  -18.2430 C   0  0  0  0  0  0  0  0  0  0  0  0
   -4.4060    0.0920  -19.5690 C   0  0  0  0  0  0  0  0  0  0  0  0
   -5.1420   -0.5960  -20.5480 C   0  0  0  0  0  0  0  0  0  0  0  0
  -12.4760    1.3980  -23.5510 O   0  0  0  0  0  0  0  0  0  0  0  0
   -5.6160   -7.1790  -24.9410 C   0  0  0  0  0  0  0  0  0  0  0  0
   -6.3450   -6.1870  -25.6050 C   0  0  0  0  0  0  0  0  0  0  0  0
   -6.8900   -5.1260  -24.8770 C   0  0  0  0  0  0  0  0  0  0  0  0
   -8.6360   -3.3370  -23.1450 C   0  0  0  0  0  0  0  0  0  0  0  0
   -9.1570   -2.1940  -22.5040 C   0  0  0  0  0  0  0  0  0  0  0  0
  -10.5570   -1.7350  -22.9110 C   0  0  0  0  0  0  0  0  0  0  0  0
  -11.5410   -2.7060  -23.1830 C   0  0  0  0  0  0  0  0  0  0  0  0
  -12.8310   -2.2820  -23.5700 C   0  0  0  0  0  0  0  0  0  0  0  0
  -13.1300   -0.9180  -23.7010 C   0  0  0  0  0  0  0  0  0  0  0  0
  -12.1450    0.0470  -23.4330 C   0  0  0  0  0  0  0  0  0  0  0  0
  -11.5560    2.3130  -23.0450 C   0  0  0  0  0  0  0  0  0  0  0  0
  -12.2140    3.6820  -23.1650 C   0  0  0  0  0  0  0  0  0  0  0  0
  -13.6350    3.5640  -22.6200 C   0  0  0  0  0  0  0  0  0  0  0  0
  -10.8590   -0.3590  -23.0360 C   0  0  0  0  0  0  0  0  0  0  0  0
   -7.1220   -1.9360  -21.2020 N   0  0  0  0  0  0  0  0  0  0  0  0
   -6.0750   -0.5130  -17.8960 N   0  0  0  0  0  0  0  0  0  0  0  0
   -5.5920   -5.9590  -20.1900 N   0  0  0  0  0  0  0  0  0  0  0  0
  -14.0940   -3.4730  -23.9360 Cl  0  0  0  0  0  0  0  0  0  0  0  0
  2  1  2  0
  3  2  1  0
  4  3  2  0
  5  4  1  0
  6  4  1  0
  8  7  2  0
 10  9  2  0
 12 11  1  0
 13  9  1  0
 13 12  2  0
 15  6  2  0
 16 15  1  0
 17 16  2  0
 17  3  1  0
 18  2  1  0
 19 18  2  0
 19  8  1  0
 20 19  1  0
 21 20  2  0
 22 21  1  0
 23 22  2  0
 24 23  1  0
 24 14  1  0
 25 14  1  0
 26 25  1  0
 27 26  1  0
 28 24  2  0
 28 20  1  0
 29  1  1  0
 29  9  1  0
 29  8  1  0
 30 10  1  0
 30 11  2  0
 31  5  3  0
 32 22  1  0
M  END
$$$$

     RDKit          3D

 22 24  0  0  0  0  0  0  0  0999 V2000
  -13.7740   -2.7390  -22.0560 Cl  0  0  0  0  0  0  0  0  0  0  0  0
  -12.3250   -2.1120  -22.7700 C   0  0  0  0  0  0  0  0  0  0  0  0
  -12.3980   -1.2330  -23.8310 C   0  0  0  0  0  0  0  0  0  0  0  0
  -13.6090   -0.7720  -24.2270 F   0  0  0  0  0  0  0  0  0  0  0  0
  -11.0920   -2.5260  -22.3100 C   0  0  0  0  0  0  0  0  0  0  0  0
   -9.9260   -2.0710  -22.9160 C   0  0  0  0  0  0  0  0  0  0  0  0
  -10.0320   -1.2200  -24.0110 C   0  0  0  0  0  0  0  0  0  0  0  0
  -11.2650   -0.7920  -24.4710 C   0  0  0  0  0  0  0  0  0  0  0  0
   -8.5750   -2.4350  -22.3430 C   0  0  0  0  0  0  0  0  0  0  0  0
   -8.0830   -1.3660  -21.3890 C   0  0  0  0  0  0  0  0  0  0  0  0
   -8.3750   -0.1780  -21.5330 O   0  0  0  0  0  0  0  0  0  0  0  0
   -7.4120   -1.8370  -20.3240 N   0  0  0  0  0  0  0  0  0  0  0  0
   -6.4160   -1.2420  -19.5320 C   0  0  0  0  0  0  0  0  0  0  0  0
   -5.4720   -0.3130  -20.0850 C   0  0  0  0  0  0  0  0  0  0  0  0
   -5.1330   -0.2530  -21.4610 C   0  0  0  0  0  0  0  0  0  0  0  0
   -4.1380    0.5720  -21.9080 C   0  0  0  0  0  0  0  0  0  0  0  0
   -3.4350    1.3740  -21.0250 C   0  0  0  0  0  0  0  0  0  0  0  0
   -3.7240    1.3580  -19.6910 C   0  0  0  0  0  0  0  0  0  0  0  0
   -4.7430    0.5120  -19.1830 C   0  0  0  0  0  0  0  0  0  0  0  0
   -5.0060    0.3700  -17.8030 C   0  0  0  0  0  0  0  0  0  0  0  0
   -5.8640   -0.4980  -17.2930 N   0  0  0  0  0  0  0  0  0  0  0  0
   -6.5270   -1.2840  -18.1460 C   0  0  0  0  0  0  0  0  0  0  0  0
  2  1  1  0
  3  2  2  0
  4  3  1  0
  5  2  1  0
  6  5  2  0
  7  6  1  0
  8  3  1  0
  8  7  2  0
  9  6  1  0
 10  9  1  0
 11 10  2  0
 12 10  1  0
 13 12  1  0
 14 13  1  0
 15 14  2  0
 16 15  1  0
 17 16  2  0
 18 17  1  0
 19 14  1  0
 19 18  2  0
 20 19  1  0
 21 20  2  0
 22 21  1  0
 22 13  2  0
M  END
$$$$

     RDKit          3D

 28 32  0  0  0  0  0  0  0  0999 V2000
  -13.8460   -2.9630  -21.1180 Cl  0  0  0  0  0  0  0  0  0  0  0  0
  -12.9350   -2.0220  -22.2720 C   0  0  0  0  0  0  0  0  0  0  0  0
  -13.6010   -1.1120  -23.0670 C   0  0  0  0  0  0  0  0  0  0  0  0
  -12.8720   -0.2500  -23.8650 C   0  0  0  0  0  0  0  0  0  0  0  0
  -11.5540   -2.1280  -22.2770 C   0  0  0  0  0  0  0  0  0  0  0  0
  -10.8020   -1.2470  -23.0560 C   0  0  0  0  0  0  0  0  0  0  0  0
  -11.4890   -0.3130  -23.8520 C   0  0  0  0  0  0  0  0  0  0  0  0
  -10.8570    0.5760  -24.6870 O   0  0  0  0  0  0  0  0  0  0  0  0
   -9.4370    0.7500  -24.4990 C   0  0  0  0  0  0  0  0  0  0  0  0
   -8.7250   -0.5650  -24.2570 C   0  0  0  0  0  0  0  0  0  0  0  0
   -9.2680   -1.2480  -22.9880 C   0  0  2  0  0  0  0  0  0  0  0  0
   -8.5970   -2.5440  -22.7960 N   0  0  0  0  0  0  0  0  0  0  0  0
   -8.8110   -3.7010  -23.6630 C   0  0  0  0  0  0  0  0  0  0  0  0
   -8.6970   -0.4670  -21.7700 C   0  0  0  0  0  0  0  0  0  0  0  0
   -9.0340    0.6350  -21.3820 O   0  0  0  0  0  0  0  0  0  0  0  0
   -7.7360   -1.2950  -21.1690 N   0  0  0  0  0  0  0  0  0  0  0  0
   -7.6900   -2.5510  -21.7770 C   0  0  0  0  0  0  0  0  0  0  0  0
   -6.9660   -3.4780  -21.4700 O   0  0  0  0  0  0  0  0  0  0  0  0
   -6.8710   -0.8730  -20.0900 C   0  0  0  0  0  0  0  0  0  0  0  0
   -5.7380   -0.0520  -20.3790 C   0  0  0  0  0  0  0  0  0  0  0  0
   -5.2890    0.2750  -21.6870 C   0  0  0  0  0  0  0  0  0  0  0  0
   -4.1970    1.0720  -21.8760 C   0  0  0  0  0  0  0  0  0  0  0  0
   -3.4970    1.5880  -20.7910 C   0  0  0  0  0  0  0  0  0  0  0  0
   -3.8870    1.3040  -19.5130 C   0  0  0  0  0  0  0  0  0  0  0  0
   -5.0120    0.4740  -19.2730 C   0  0  0  0  0  0  0  0  0  0  0  0
   -5.4590    0.1400  -17.9690 C   0  0  0  0  0  0  0  0  0  0  0  0
   -6.5140   -0.6250  -17.7140 N   0  0  0  0  0  0  0  0  0  0  0  0
   -7.1960   -1.1110  -18.7600 C   0  0  0  0  0  0  0  0  0  0  0  0
  2  1  1  0
  3  2  2  0
  4  3  1  0
  5  2  1  0
  6  5  2  0
  7  4  2  0
  7  6  1  0
  8  7  1  0
  9  8  1  0
 10  9  1  0
 11 10  1  6
 11  6  1  0
 12 11  1  0
 13 12  1  0
 14 11  1  0
 15 14  2  0
 16 14  1  0
 17 12  1  0
 17 16  1  0
 18 17  2  0
 19 16  1  0
 20 19  1  0
 21 20  2  0
 22 21  1  0
 23 22  2  0
 24 23  1  0
 25 20  1  0
 25 24  2  0
 26 25  1  0
 27 26  2  0
 28 27  1  0
 28 19  2  0
M  END
$$$$

     RDKit          3D

 15 17  0  0  0  0  0  0  0  0999 V2000
   -1.6360  -25.6110   -0.7220 C   0  0  0  0  0  0  0  0  0  0  0  0
   -1.4500  -24.2400   -0.6030 C   0  0  0  0  0  0  0  0  0  0  0  0
   -3.5800  -24.0370    0.2510 C   0  0  0  0  0  0  0  0  0  0  0  0
   -5.8990  -23.6280    1.1690 C   0  0  0  0  0  0  0  0  0  0  0  0
   -6.7960  -22.3460    1.3500 C   0  0  0  0  0  0  0  0  0  0  0  0
   -5.7390  -21.2110    1.6140 C   0  0  1  0  0  0  0  0  0  0  0  0
   -6.3080  -19.8200    1.3180 C   0  0  0  0  0  0  0  0  0  0  0  0
   -7.0320  -19.5370    2.4400 C   0  0  0  0  0  0  0  0  0  0  0  0
   -5.3550  -21.1080    3.1730 C   0  0  0  0  0  0  0  0  0  0  0  0
   -4.6890  -21.5370    0.8300 C   0  0  0  0  0  0  0  0  0  0  0  0
   -3.7700  -25.4220    0.1370 C   0  0  0  0  0  0  0  0  0  0  0  0
   -2.4360  -23.4720   -0.1160 N   0  0  0  0  0  0  0  0  0  0  0  0
   -4.6830  -23.1880    0.7950 N   0  0  0  0  0  0  0  0  0  0  0  0
   -2.7920  -26.1750   -0.3560 N   0  0  0  0  0  0  0  0  0  0  0  0
   -6.2790  -20.3170    3.6870 O   0  0  0  0  0  0  0  0  0  0  0  0
  2  1  2  0
  5  4  1  0
  6  5  1  1
  7  6  1  0
  8  7  1  0
  9  6  1  0
 10  6  1  0
 11  3  1  0
 12  3  2  0
 12  2  1  0
 13  4  1  0
 13  3  1  0
 13 10  1  0
 14 11  2  0
 14  1  1  0
 15  8  1  0
 15  9  1  0
M  END
$$$$

     RDKit          3D

 24 26  0  0  0  0  0  0  0  0999 V2000
  -13.3650    5.5610  -22.4500 O   0  0  0  0  0  0  0  0  0  0  0  0
  -13.3450    4.3540  -22.6850 C   0  0  0  0  0  0  0  0  0  0  0  0
  -12.7090    3.1300  -22.0400 C   0  0  0  0  0  0  0  0  0  0  0  0
  -13.9030    3.6230  -23.6680 N   0  0  0  0  0  0  0  0  0  0  0  0
  -13.5390    2.3330  -23.0520 C   0  0  1  0  0  0  0  0  0  0  0  0
  -12.6210    1.5700  -23.8580 O   0  0  0  0  0  0  0  0  0  0  0  0
  -12.2540    0.3250  -23.3860 C   0  0  0  0  0  0  0  0  0  0  0  0
  -13.2080   -0.6090  -23.0150 C   0  0  0  0  0  0  0  0  0  0  0  0
  -12.7720   -1.8380  -22.5640 C   0  0  0  0  0  0  0  0  0  0  0  0
  -13.9470   -3.0130  -22.0450 Cl  0  0  0  0  0  0  0  0  0  0  0  0
  -11.4280   -2.1500  -22.4750 C   0  0  0  0  0  0  0  0  0  0  0  0
  -10.8980    0.0330  -23.3210 C   0  0  0  0  0  0  0  0  0  0  0  0
  -10.4780   -1.2090  -22.8540 C   0  0  0  0  0  0  0  0  0  0  0  0
   -9.0050   -1.5230  -22.7360 C   0  0  0  0  0  0  0  0  0  0  0  0
   -8.3610   -0.7760  -21.5850 C   0  0  0  0  0  0  0  0  0  0  0  0
   -8.8180    0.2840  -21.1630 O   0  0  0  0  0  0  0  0  0  0  0  0
   -7.2490   -1.3570  -21.0820 N   0  0  0  0  0  0  0  0  0  0  0  0
   -6.5220   -0.8110  -19.9980 C   0  0  0  0  0  0  0  0  0  0  0  0
   -5.4480    0.0620  -20.2480 C   0  0  0  0  0  0  0  0  0  0  0  0
   -4.9870    0.3790  -21.6490 C   0  0  0  0  0  0  0  0  0  0  0  0
   -6.8890   -1.0590  -18.6740 C   0  0  0  0  0  0  0  0  0  0  0  0
   -6.2700   -0.5080  -17.6210 N   0  0  0  0  0  0  0  0  0  0  0  0
   -5.2570    0.3280  -17.8740 C   0  0  0  0  0  0  0  0  0  0  0  0
   -4.8180    0.6340  -19.1480 C   0  0  0  0  0  0  0  0  0  0  0  0
  2  1  2  0
  3  2  1  0
  4  2  1  0
  5  4  1  0
  5  3  1  0
  5  6  1  6
  7  6  1  0
  8  7  2  0
  9  8  1  0
 10  9  1  0
 11  9  2  0
 12  7  1  0
 13 11  1  0
 13 12  2  0
 14 13  1  0
 15 14  1  0
 16 15  2  0
 17 15  1  0
 18 17  1  0
 19 18  2  0
 20 19  1  0
 21 18  1  0
 22 21  2  0
 23 22  1  0
 24 23  2  0
 24 19  1  0
M  END
$$$$

     RDKit          3D

 23 25  0  0  0  0  0  0  0  0999 V2000
   -6.1710   -0.3200  -17.5670 N   0  0  0  0  0  0  0  0  0  0  0  0
   -8.9970   -1.5050  -23.6510 N   0  0  0  0  0  0  0  0  0  0  0  0
   -5.0000   -0.0740  -20.1050 C   0  0  0  0  0  0  0  0  0  0  0  0
  -12.4830   -0.8620  -24.5910 C   0  0  0  0  0  0  0  0  0  0  0  0
   -7.1380   -0.3800  -24.4140 O   0  0  0  0  0  0  0  0  0  0  0  0
   -8.3500   -0.5720  -24.4360 C   0  0  0  0  0  0  0  0  0  0  0  0
   -4.5250    0.6430  -19.0140 C   0  0  0  0  0  0  0  0  0  0  0  0
   -7.7970   -1.3490  -21.5520 C   0  0  0  0  0  0  0  0  0  0  0  0
   -6.0690   -0.9560  -19.8800 C   0  0  0  0  0  0  0  0  0  0  0  0
   -6.6150   -1.0440  -18.6010 C   0  0  0  0  0  0  0  0  0  0  0  0
  -11.1050   -0.9250  -24.6210 C   0  0  0  0  0  0  0  0  0  0  0  0
  -12.4700   -2.2700  -22.6740 C   0  0  0  0  0  0  0  0  0  0  0  0
   -9.1980    0.2630  -25.3650 C   0  0  0  0  0  0  0  0  0  0  0  0
  -13.1680   -1.5190  -23.5900 C   0  0  0  0  0  0  0  0  0  0  0  0
  -11.0910   -2.3450  -22.6830 C   0  0  0  0  0  0  0  0  0  0  0  0
   -4.4370    0.1650  -21.4840 C   0  0  0  0  0  0  0  0  0  0  0  0
   -6.6300   -1.6770  -20.9560 N   0  0  0  0  0  0  0  0  0  0  0  0
   -8.4790   -0.3760  -21.2510 O   0  0  0  0  0  0  0  0  0  0  0  0
  -10.4740   -0.3130  -25.6730 O   0  0  0  0  0  0  0  0  0  0  0  0
   -8.1920   -2.2600  -22.6990 C   0  0  0  0  0  0  0  0  0  0  0  0
   -5.1380    0.5050  -17.7880 C   0  0  0  0  0  0  0  0  0  0  0  0
  -10.3980   -1.6240  -23.6520 C   0  0  0  0  0  0  0  0  0  0  0  0
  -13.3600   -3.1910  -21.4920 Cl  0  0  0  0  0  0  0  0  0  0  0  0
  6  5  2  0
  6  2  1  0
  7  3  1  0
  9  3  2  0
 10  9  1  0
 10  1  2  0
 11  4  2  0
 13  6  1  0
 14 12  2  0
 14  4  1  0
 15 12  1  0
 16  3  1  0
 17  9  1  0
 17  8  1  0
 18  8  2  0
 19 11  1  0
 19 13  1  0
 20  2  1  0
 20  8  1  0
 21  1  1  0
 21  7  2  0
 22 15  2  0
 22 11  1  0
 22  2  1  0
 23 12  1  0
M  END
$$$$

     RDKit          3D

 37 41  0  0  0  0  0  0  0  0999 V2000
   -8.3550   -1.3860  -21.4820 C   0  0  0  0  0  0  0  0  0  0  0  0
   -8.4440   -3.2760  -22.9530 C   0  0  0  0  0  0  0  0  0  0  0  0
   -9.0550   -2.1130  -22.4690 C   0  0  0  0  0  0  0  0  0  0  0  0
  -10.4220   -1.6630  -22.9620 C   0  0  0  0  0  0  0  0  0  0  0  0
  -11.4650   -2.5960  -22.9840 C   0  0  0  0  0  0  0  0  0  0  0  0
   -6.3860   -1.0780  -20.0200 C   0  0  0  0  0  0  0  0  0  0  0  0
  -12.7410   -2.1980  -23.4190 C   0  0  0  0  0  0  0  0  0  0  0  0
  -12.9710   -0.8720  -23.8260 C   0  0  0  0  0  0  0  0  0  0  0  0
  -11.9360    0.0700  -23.7800 C   0  0  0  0  0  0  0  0  0  0  0  0
  -11.4600    2.4550  -23.6060 C   0  0  0  0  0  0  0  0  0  0  0  0
  -12.0850    3.7570  -24.1130 C   0  0  0  0  0  0  0  0  0  0  0  0
  -10.6600   -0.3310  -23.3480 C   0  0  0  0  0  0  0  0  0  0  0  0
   -6.8110   -1.1720  -18.6890 C   0  0  0  0  0  0  0  0  0  0  0  0
   -5.0120    0.2980  -18.0660 C   0  0  0  0  0  0  0  0  0  0  0  0
   -4.5950    0.3800  -19.4010 C   0  0  0  0  0  0  0  0  0  0  0  0
   -5.2760   -0.3210  -20.4000 C   0  0  0  0  0  0  0  0  0  0  0  0
   -6.5190   -2.9690  -21.5390 C   0  0  0  0  0  0  0  0  0  0  0  0
   -7.1970   -3.7140  -22.4900 C   0  0  0  0  0  0  0  0  0  0  0  0
   -6.5670   -4.9740  -23.0850 C   0  0  0  0  0  0  0  0  0  0  0  0
   -5.7810   -5.9040  -22.3580 C   0  0  0  0  0  0  0  0  0  0  0  0
   -6.7920   -5.1650  -24.4610 C   0  0  0  0  0  0  0  0  0  0  0  0
   -5.4950   -7.1820  -24.4090 C   0  0  0  0  0  0  0  0  0  0  0  0
  -11.5680    4.4380  -25.2190 C   0  0  0  0  0  0  0  0  0  0  0  0
  -12.1930    5.6220  -25.6550 C   0  0  0  0  0  0  0  0  0  0  0  0
  -13.3270    6.1270  -24.9980 C   0  0  0  0  0  0  0  0  0  0  0  0
  -13.8500    5.4390  -23.8950 C   0  0  0  0  0  0  0  0  0  0  0  0
  -13.2230    4.2570  -23.4680 C   0  0  0  0  0  0  0  0  0  0  0  0
   -7.1070   -1.8170  -21.0280 N   0  0  0  0  0  0  0  0  0  0  0  0
   -6.1140   -0.4800  -17.6940 N   0  0  0  0  0  0  0  0  0  0  0  0
   -5.2440   -7.0080  -23.0360 N   0  0  0  0  0  0  0  0  0  0  0  0
   -6.2660   -6.2610  -25.1230 N   0  0  0  0  0  0  0  0  0  0  0  0
   -8.8960   -0.2220  -20.9460 O   0  0  0  0  0  0  0  0  0  0  0  0
  -12.2010    1.3970  -24.1690 O   0  0  0  0  0  0  0  0  0  0  0  0
   -5.5160   -5.7540  -20.9900 O   0  0  0  0  0  0  0  0  0  0  0  0
   -4.9770   -8.2720  -25.1010 O   0  0  0  0  0  0  0  0  0  0  0  0
  -14.0800   -3.3810  -23.4870 Cl  0  0  0  0  0  0  0  0  0  0  0  0
  -13.8430    3.3480  -22.0640 Cl  0  0  0  0  0  0  0  0  0  0  0  0
  3  2  2  0
  3  1  1  0
  4  3  1  0
  5  4  2  0
  7  5  1  0
  8  7  2  0
  9  8  1  0
 11 10  1  0
 12  9  2  0
 12  4  1  0
 13  6  2  0
 15 14  1  0
 16  6  1  0
 16 15  2  0
 18  2  1  0
 18 17  2  0
 19 18  1  0
 20 19  1  0
 21 19  2  0
 23 11  2  0
 24 23  1  0
 25 24  2  0
 26 25  1  0
 27 26  2  0
 27 11  1  0
 28 17  1  0
 28  6  1  0
 28  1  1  0
 29 13  1  0
 29 14  2  0
 30 22  1  0
 30 20  1  0
 31 22  1  0
 31 21  1  0
 32  1  2  0
 33 10  1  0
 33  9  1  0
 34 20  2  0
 35 22  2  0
 36  7  1  0
 37 27  1  0
M  END
$$$$

     RDKit          3D

 34 39  0  0  0  0  0  0  0  0999 V2000
   -6.4770    3.1490  -25.0920 O   0  0  0  0  0  0  0  0  0  0  0  0
   -7.3100    2.4390  -24.5530 C   0  0  0  0  0  0  0  0  0  0  0  0
   -7.6830    2.5870  -23.2890 N   0  0  0  0  0  0  0  0  0  0  0  0
   -6.9520    3.4540  -22.3820 C   0  0  0  0  0  0  0  0  0  0  0  0
   -7.9260    1.2880  -25.3590 C   0  0  2  0  0  0  0  0  0  0  0  0
   -7.0530    0.6940  -26.4340 C   0  0  0  0  0  0  0  0  0  0  0  0
   -8.2020    1.5680  -26.8120 C   0  0  0  0  0  0  0  0  0  0  0  0
   -8.8590    0.3520  -24.6720 N   0  0  0  0  0  0  0  0  0  0  0  0
  -10.1530    0.7240  -24.4590 C   0  0  0  0  0  0  0  0  0  0  0  0
  -10.5460    1.8350  -24.7530 O   0  0  0  0  0  0  0  0  0  0  0  0
  -11.0380   -0.2560  -23.8070 C   0  0  0  0  0  0  0  0  0  0  0  0
  -12.4160   -0.0480  -23.8420 C   0  0  0  0  0  0  0  0  0  0  0  0
  -13.2720   -0.9190  -23.1930 C   0  0  0  0  0  0  0  0  0  0  0  0
  -12.7460   -2.0120  -22.5370 C   0  0  0  0  0  0  0  0  0  0  0  0
  -13.8170   -3.0680  -21.6610 Cl  0  0  0  0  0  0  0  0  0  0  0  0
  -11.3890   -2.2690  -22.5160 C   0  0  0  0  0  0  0  0  0  0  0  0
  -10.5210   -1.3690  -23.1280 C   0  0  0  0  0  0  0  0  0  0  0  0
   -8.3510   -0.9640  -24.2780 C   0  0  0  0  0  0  0  0  0  0  0  0
   -9.0080   -1.4770  -22.9690 C   0  0  1  0  0  0  0  0  0  0  0  0
   -8.4910   -0.6450  -21.7950 C   0  0  0  0  0  0  0  0  0  0  0  0
   -8.9290    0.4310  -21.4280 O   0  0  0  0  0  0  0  0  0  0  0  0
   -8.5150   -2.8970  -22.5910 C   0  0  0  0  0  0  0  0  0  0  0  0
   -7.2080   -2.6210  -21.8580 C   0  0  0  0  0  0  0  0  0  0  0  0
   -7.4480   -1.3100  -21.2300 N   0  0  0  0  0  0  0  0  0  0  0  0
   -6.6410   -0.8110  -20.1650 C   0  0  0  0  0  0  0  0  0  0  0  0
   -5.5180    0.0100  -20.4600 C   0  0  0  0  0  0  0  0  0  0  0  0
   -5.0590    0.2920  -21.7760 C   0  0  0  0  0  0  0  0  0  0  0  0
   -3.9860    1.1140  -21.9860 C   0  0  0  0  0  0  0  0  0  0  0  0
   -3.3250    1.7030  -20.9130 C   0  0  0  0  0  0  0  0  0  0  0  0
   -3.7240    1.4580  -19.6300 C   0  0  0  0  0  0  0  0  0  0  0  0
   -4.8190    0.5970  -19.3660 C   0  0  0  0  0  0  0  0  0  0  0  0
   -5.2710    0.2900  -18.0540 C   0  0  0  0  0  0  0  0  0  0  0  0
   -6.3100   -0.4980  -17.7840 N   0  0  0  0  0  0  0  0  0  0  0  0
   -6.9720   -1.0230  -18.8270 C   0  0  0  0  0  0  0  0  0  0  0  0
  2  1  2  0
  3  2  1  0
  4  3  1  0
  5  2  1  0
  6  5  1  0
  7  6  1  0
  7  5  1  0
  5  8  1  1
  9  8  1  0
 10  9  2  0
 11  9  1  0
 12 11  2  0
 13 12  1  0
 14 13  2  0
 15 14  1  0
 16 14  1  0
 17 16  2  0
 17 11  1  0
 18  8  1  0
 19 18  1  6
 19 17  1  0
 20 19  1  0
 21 20  2  0
 22 19  1  0
 23 22  1  0
 24 23  1  0
 24 20  1  0
 25 24  1  0
 26 25  1  0
 27 26  2  0
 28 27  1  0
 29 28  2  0
 30 29  1  0
 31 26  1  0
 31 30  2  0
 32 31  1  0
 33 32  2  0
 34 33  1  0
 34 25  2  0
M  END
$$$$

     RDKit          3D

 25 27  0  0  0  0  0  0  0  0999 V2000
  -13.8860   -2.7590  -21.7030 Cl  0  0  0  0  0  0  0  0  0  0  0  0
  -12.6350   -2.0480  -22.6850 C   0  0  0  0  0  0  0  0  0  0  0  0
  -12.9730   -1.0830  -23.6130 C   0  0  0  0  0  0  0  0  0  0  0  0
  -11.9610   -0.4790  -24.3410 C   0  0  0  0  0  0  0  0  0  0  0  0
  -10.6360   -0.8240  -24.1140 C   0  0  0  0  0  0  0  0  0  0  0  0
  -11.3230   -2.4220  -22.4700 C   0  0  0  0  0  0  0  0  0  0  0  0
  -10.3020   -1.7860  -23.1680 C   0  0  0  0  0  0  0  0  0  0  0  0
   -8.8570   -2.0750  -22.8310 C   0  0  0  0  0  0  0  0  0  0  0  0
   -8.3070   -1.1770  -21.7400 C   0  0  0  0  0  0  0  0  0  0  0  0
   -8.8680   -0.1270  -21.4140 O   0  0  0  0  0  0  0  0  0  0  0  0
   -7.1710   -1.6290  -21.1650 N   0  0  0  0  0  0  0  0  0  0  0  0
   -6.4760   -1.0720  -20.0760 C   0  0  0  0  0  0  0  0  0  0  0  0
   -6.8960   -1.1940  -18.7500 C   0  0  0  0  0  0  0  0  0  0  0  0
   -6.3270   -0.5750  -17.7070 N   0  0  0  0  0  0  0  0  0  0  0  0
   -5.2920    0.2170  -17.9540 C   0  0  0  0  0  0  0  0  0  0  0  0
   -5.3380   -0.2440  -20.3390 C   0  0  0  0  0  0  0  0  0  0  0  0
   -4.7400    0.4320  -19.2410 C   0  0  0  0  0  0  0  0  0  0  0  0
   -3.6130    1.2540  -19.4730 C   0  0  0  0  0  0  0  0  0  0  0  0
   -3.0860    1.3820  -20.7220 C   0  0  0  0  0  0  0  0  0  0  0  0
   -4.7600   -0.0850  -21.6250 C   0  0  0  0  0  0  0  0  0  0  0  0
   -3.6430    0.6980  -21.8100 C   0  0  0  0  0  0  0  0  0  0  0  0
   -2.9740    0.7520  -23.1470 C   0  0  0  0  0  0  0  0  0  0  0  0
   -3.5800    0.4450  -24.1690 O   0  0  0  0  0  0  0  0  0  0  0  0
   -1.6810    1.0770  -23.1610 N   0  0  0  0  0  0  0  0  0  0  0  0
   -0.8210    0.7490  -24.2820 C   0  0  0  0  0  0  0  0  0  0  0  0
  2  1  1  0
  3  2  2  0
  4  3  1  0
  5  4  2  0
  6  2  1  0
  7  6  2  0
  7  5  1  0
  8  7  1  0
  9  8  1  0
 10  9  2  0
 11  9  1  0
 12 11  1  0
 13 12  2  0
 14 13  1  0
 15 14  2  0
 16 12  1  0
 17 16  2  0
 17 15  1  0
 18 17  1  0
 19 18  2  0
 20 16  1  0
 21 20  2  0
 21 19  1  0
 22 21  1  0
 23 22  2  0
 24 22  1  0
 25 24  1  0
M  END
$$$$

     RDKit          3D

 26 28  0  0  0  0  0  0  0  0999 V2000
   -8.6350   -0.4560  -21.1640 O   0  0  0  0  0  0  0  0  0  0  0  0
   -8.0420   -1.5210  -21.3060 C   0  0  0  0  0  0  0  0  0  0  0  0
   -6.9020   -1.8350  -20.6690 N   0  0  0  0  0  0  0  0  0  0  0  0
   -6.2540   -1.0230  -19.7230 C   0  0  0  0  0  0  0  0  0  0  0  0
   -5.1410   -0.2580  -20.1040 C   0  0  0  0  0  0  0  0  0  0  0  0
   -4.6530   -0.2130  -21.5300 C   0  0  0  0  0  0  0  0  0  0  0  0
   -4.5490    0.5380  -19.1310 C   0  0  0  0  0  0  0  0  0  0  0  0
   -5.0810    0.5610  -17.8560 C   0  0  0  0  0  0  0  0  0  0  0  0
   -6.1530   -0.1510  -17.4880 N   0  0  0  0  0  0  0  0  0  0  0  0
   -6.7200   -0.9380  -18.4130 C   0  0  0  0  0  0  0  0  0  0  0  0
   -8.5400   -2.5990  -22.2480 C   0  0  0  0  0  0  0  0  0  0  0  0
   -9.8480   -2.1990  -22.8820 C   0  0  0  0  0  0  0  0  0  0  0  0
  -11.0480   -2.6860  -22.3770 C   0  0  0  0  0  0  0  0  0  0  0  0
  -12.2330   -2.3270  -22.9810 C   0  0  0  0  0  0  0  0  0  0  0  0
  -13.7180   -3.0360  -22.4110 Cl  0  0  0  0  0  0  0  0  0  0  0  0
  -12.2690   -1.4800  -24.0690 C   0  0  0  0  0  0  0  0  0  0  0  0
   -9.8610   -1.3580  -23.9850 C   0  0  0  0  0  0  0  0  0  0  0  0
  -11.0670   -1.0160  -24.5770 C   0  0  0  0  0  0  0  0  0  0  0  0
  -11.1830   -0.1900  -25.6670 O   0  0  0  0  0  0  0  0  0  0  0  0
  -10.0100    0.4410  -26.1960 C   0  0  0  0  0  0  0  0  0  0  0  0
   -9.2330   -0.4930  -27.0600 C   0  0  0  0  0  0  0  0  0  0  0  0
   -9.7740   -1.6430  -27.4840 O   0  0  0  0  0  0  0  0  0  0  0  0
   -8.7850   -2.2610  -28.2970 N   0  0  0  0  0  0  0  0  0  0  0  0
   -8.0350   -0.2980  -27.4900 N   0  0  0  0  0  0  0  0  0  0  0  0
   -7.7980   -1.4150  -28.2540 C   0  0  0  0  0  0  0  0  0  0  0  0
   -6.5030   -1.6070  -28.9550 C   0  0  0  0  0  0  0  0  0  0  0  0
  2  1  2  0
  3  2  1  0
  4  3  1  0
  5  4  2  0
  6  5  1  0
  7  5  1  0
  8  7  2  0
  9  8  1  0
 10  9  2  0
 10  4  1  0
 11  2  1  0
 12 11  1  0
 13 12  2  0
 14 13  1  0
 15 14  1  0
 16 14  2  0
 17 12  1  0
 18 16  1  0
 18 17  2  0
 19 18  1  0
 20 19  1  0
 21 20  1  0
 22 21  1  0
 23 22  1  0
 24 21  2  0
 25 24  1  0
 25 23  2  0
 26 25  1  0
M  END
$$$$

     RDKit          3D

 32 33  0  0  0  0  0  0  0  0999 V2000
   -5.2510   -3.5620  -21.7500 O   0  0  0  0  0  0  0  0  0  0  0  0
   -6.4290   -3.4910  -21.4400 C   0  0  0  0  0  0  0  0  0  0  0  0
   -6.9550   -4.3070  -20.2760 C   0  0  0  0  0  0  0  0  0  0  0  0
   -7.6330   -5.5880  -20.6830 C   0  0  0  0  0  0  0  0  0  0  0  0
   -7.2410   -2.5160  -21.9550 N   0  0  0  0  0  0  0  0  0  0  0  0
   -8.4600   -2.8230  -22.6580 C   0  0  0  0  0  0  0  0  0  0  0  0
   -8.4580   -2.9790  -24.0460 C   0  0  0  0  0  0  0  0  0  0  0  0
   -9.6540   -3.0940  -24.7400 C   0  0  0  0  0  0  0  0  0  0  0  0
  -10.8780   -3.0610  -24.0750 C   0  0  0  0  0  0  0  0  0  0  0  0
  -12.1920   -3.0850  -24.8680 C   0  0  1  0  0  0  0  0  0  0  0  0
  -12.2090   -4.2370  -25.8840 C   0  0  0  0  0  0  0  0  0  0  0  0
  -13.4010   -3.2570  -23.9500 C   0  0  0  0  0  0  0  0  0  0  0  0
  -12.3570   -1.7690  -25.6260 C   0  0  0  0  0  0  0  0  0  0  0  0
  -10.8650   -2.9400  -22.6860 C   0  0  0  0  0  0  0  0  0  0  0  0
   -9.6770   -2.8310  -21.9830 C   0  0  0  0  0  0  0  0  0  0  0  0
   -6.8660   -1.0960  -21.7380 C   0  0  2  0  0  0  0  0  0  0  0  0
   -6.2450   -0.7560  -20.3880 C   0  0  0  0  0  0  0  0  0  0  0  0
   -5.0860    0.0020  -20.3110 C   0  0  0  0  0  0  0  0  0  0  0  0
   -6.4380   -0.6670  -17.9850 N   0  0  0  0  0  0  0  0  0  0  0  0
   -4.6140    0.4270  -19.0830 C   0  0  0  0  0  0  0  0  0  0  0  0
   -5.3230    0.0690  -17.9500 C   0  0  0  0  0  0  0  0  0  0  0  0
   -6.8720   -1.0640  -19.1870 C   0  0  0  0  0  0  0  0  0  0  0  0
   -7.9620   -0.0950  -22.1360 C   0  0  0  0  0  0  0  0  0  0  0  0
   -8.8530    0.2070  -21.3430 O   0  0  0  0  0  0  0  0  0  0  0  0
   -7.8530    0.4410  -23.3530 N   0  0  0  0  0  0  0  0  0  0  0  0
   -8.6590    1.5710  -23.7950 C   0  0  0  0  0  0  0  0  0  0  0  0
  -10.0310    1.1540  -24.2810 C   0  0  0  0  0  0  0  0  0  0  0  0
  -11.0870    1.5850  -23.3080 C   0  0  0  0  0  0  0  0  0  0  0  0
  -11.0550    1.3510  -22.1280 O   0  0  0  0  0  0  0  0  0  0  0  0
  -12.0580    2.2840  -23.9000 O   0  0  0  0  0  0  0  0  0  0  0  0
  -13.1710    2.6950  -23.0500 C   0  0  0  0  0  0  0  0  0  0  0  0
  -13.2430    4.1390  -23.0350 C   0  0  0  0  0  0  0  0  0  0  0  0
  2  1  2  0
  3  2  1  0
  4  3  1  0
  5  2  1  0
  6  5  1  0
  7  6  2  0
  8  7  1  0
  9  8  2  0
 10  9  1  0
 10 11  1  6
 12 10  1  0
 13 10  1  0
 14  9  1  0
 15 14  2  0
 15  6  1  0
 16  5  1  1
 17 16  1  0
 18 17  2  0
 20 18  1  0
 21 19  1  0
 21 20  2  0
 22 19  2  0
 22 17  1  0
 23 16  1  0
 24 23  2  0
 25 23  1  0
 26 25  1  0
 27 26  1  0
 28 27  1  0
 29 28  2  0
 30 28  1  0
 31 30  1  0
 32 31  1  0
M  END
$$$$

     RDKit          3D

 29 32  0  0  0  0  0  0  0  0999 V2000
   -9.1640    0.1120  -21.1490 O   0  0  0  0  0  0  0  0  0  0  0  0
   -8.6920   -0.9250  -21.5930 C   0  0  0  0  0  0  0  0  0  0  0  0
   -9.2880   -1.5810  -22.8600 C   0  0  1  0  0  0  0  0  0  0  0  0
  -10.7990   -1.3710  -22.9570 C   0  0  0  0  0  0  0  0  0  0  0  0
  -11.6690   -2.1720  -22.2190 C   0  0  0  0  0  0  0  0  0  0  0  0
  -13.0200   -1.8880  -22.2230 C   0  0  0  0  0  0  0  0  0  0  0  0
  -14.0640   -2.7610  -21.1320 Cl  0  0  0  0  0  0  0  0  0  0  0  0
  -13.5460   -0.8610  -22.9760 C   0  0  0  0  0  0  0  0  0  0  0  0
  -12.6970   -0.0710  -23.7300 C   0  0  0  0  0  0  0  0  0  0  0  0
  -11.3360   -0.3340  -23.7210 C   0  0  0  0  0  0  0  0  0  0  0  0
  -10.6090    0.3370  -24.6700 O   0  0  0  0  0  0  0  0  0  0  0  0
   -9.3770   -0.2980  -25.0650 C   0  0  0  0  0  0  0  0  0  0  0  0
   -8.5110   -0.7460  -23.9080 C   0  0  0  0  0  0  0  0  0  0  0  0
   -9.0070   -3.1060  -22.9280 C   0  0  0  0  0  0  0  0  0  0  0  0
   -7.6990   -3.4700  -23.5950 C   0  0  0  0  0  0  0  0  0  0  0  0
   -6.6150   -3.2640  -23.0490 O   0  0  0  0  0  0  0  0  0  0  0  0
   -7.7980   -4.0600  -24.7810 N   0  0  0  0  0  0  0  0  0  0  0  0
   -6.6370   -4.5370  -25.5090 C   0  0  0  0  0  0  0  0  0  0  0  0
   -7.5740   -1.4830  -21.0620 N   0  0  0  0  0  0  0  0  0  0  0  0
   -6.7730   -0.9760  -20.0170 C   0  0  0  0  0  0  0  0  0  0  0  0
   -5.6050   -0.2190  -20.3500 C   0  0  0  0  0  0  0  0  0  0  0  0
   -5.1150   -0.0620  -21.6750 C   0  0  0  0  0  0  0  0  0  0  0  0
   -4.0020    0.6910  -21.9290 C   0  0  0  0  0  0  0  0  0  0  0  0
   -3.3250    1.3250  -20.8930 C   0  0  0  0  0  0  0  0  0  0  0  0
   -3.7470    1.1900  -19.6000 C   0  0  0  0  0  0  0  0  0  0  0  0
   -4.8900    0.4090  -19.2930 C   0  0  0  0  0  0  0  0  0  0  0  0
   -5.3620    0.2130  -17.9720 C   0  0  0  0  0  0  0  0  0  0  0  0
   -6.4260   -0.5130  -17.6600 N   0  0  0  0  0  0  0  0  0  0  0  0
   -7.1010   -1.0850  -18.6650 C   0  0  0  0  0  0  0  0  0  0  0  0
  2  1  2  0
  3  2  1  0
  4  3  1  0
  5  4  2  0
  6  5  1  0
  7  6  1  0
  8  6  2  0
  9  8  1  0
 10  9  2  0
 10  4  1  0
 11 10  1  0
 12 11  1  0
 13 12  1  0
 13  3  1  0
  3 14  1  1
 15 14  1  0
 16 15  2  0
 17 15  1  0
 18 17  1  0
 19  2  1  0
 20 19  1  0
 21 20  1  0
 22 21  2  0
 23 22  1  0
 24 23  2  0
 25 24  1  0
 26 21  1  0
 26 25  2  0
 27 26  1  0
 28 27  2  0
 29 28  1  0
 29 20  2  0
M  END
$$$$

     RDKit          3D

 22 24  0  0  0  0  0  0  0  0999 V2000
   -8.5690   -0.4910  -21.5390 O   0  0  0  0  0  0  0  0  0  0  0  0
   -7.9800   -1.5620  -21.6710 C   0  0  0  0  0  0  0  0  0  0  0  0
   -6.9670   -1.9650  -20.8780 N   0  0  0  0  0  0  0  0  0  0  0  0
   -6.3010   -1.2280  -19.8820 C   0  0  0  0  0  0  0  0  0  0  0  0
   -5.1820   -0.4280  -20.2590 C   0  0  0  0  0  0  0  0  0  0  0  0
   -4.7070   -0.3140  -21.5910 C   0  0  0  0  0  0  0  0  0  0  0  0
   -3.6540    0.5010  -21.8920 C   0  0  0  0  0  0  0  0  0  0  0  0
   -3.0190    1.2320  -20.9000 C   0  0  0  0  0  0  0  0  0  0  0  0
   -3.4330    1.1510  -19.6050 C   0  0  0  0  0  0  0  0  0  0  0  0
   -4.5230    0.3210  -19.2470 C   0  0  0  0  0  0  0  0  0  0  0  0
   -5.0170    0.2180  -17.9270 C   0  0  0  0  0  0  0  0  0  0  0  0
   -6.0580   -0.5210  -17.5780 N   0  0  0  0  0  0  0  0  0  0  0  0
   -6.6740   -1.2160  -18.5420 C   0  0  0  0  0  0  0  0  0  0  0  0
   -8.3330   -2.5140  -22.7940 C   0  0  0  0  0  0  0  0  0  0  0  0
   -9.7620   -2.2950  -23.2160 C   0  0  0  0  0  0  0  0  0  0  0  0
  -10.8000   -2.5560  -22.3860 C   0  0  0  0  0  0  0  0  0  0  0  0
  -12.1080   -2.0780  -22.6580 C   0  0  0  0  0  0  0  0  0  0  0  0
  -13.1170   -2.3240  -21.7780 C   0  0  0  0  0  0  0  0  0  0  0  0
  -13.9830   -2.5430  -21.0000 C   0  0  0  0  0  0  0  0  0  0  0  0
  -12.2930   -1.3280  -23.8730 C   0  0  0  0  0  0  0  0  0  0  0  0
  -11.2480   -1.1290  -24.7340 C   0  0  0  0  0  0  0  0  0  0  0  0
   -9.9800   -1.6140  -24.4220 C   0  0  0  0  0  0  0  0  0  0  0  0
  2  1  2  0
  3  2  1  0
  4  3  1  0
  5  4  1  0
  6  5  2  0
  7  6  1  0
  8  7  2  0
  9  8  1  0
 10  9  2  0
 10  5  1  0
 11 10  1  0
 12 11  2  0
 13 12  1  0
 13  4  2  0
 14  2  1  0
 15 14  1  0
 16 15  2  0
 17 16  1  0
 18 17  1  0
 19 18  3  0
 20 17  2  0
 21 20  1  0
 22 21  2  0
 22 15  1  0
M  END
$$$$

     RDKit          3D

 22 23  0  0  0  0  0  0  0  0999 V2000
  -14.0720   -1.5570  -23.1860 F   0  0  0  0  0  0  0  0  0  0  0  0
  -13.1490   -2.5060  -23.1760 C   0  0  2  0  0  0  0  0  0  0  0  0
  -13.6120   -3.5510  -23.8630 F   0  0  0  0  0  0  0  0  0  0  0  0
  -13.0610   -2.8860  -21.8980 F   0  0  0  0  0  0  0  0  0  0  0  0
  -11.8380   -2.0080  -23.7210 C   0  0  0  0  0  0  0  0  0  0  0  0
  -11.7780   -1.1380  -24.8000 C   0  0  0  0  0  0  0  0  0  0  0  0
  -10.5320   -0.7330  -25.2460 C   0  0  0  0  0  0  0  0  0  0  0  0
   -9.3940   -1.2000  -24.6050 C   0  0  0  0  0  0  0  0  0  0  0  0
  -10.7490   -2.4730  -23.0900 N   0  0  0  0  0  0  0  0  0  0  0  0
   -9.5450   -2.0680  -23.5270 C   0  0  0  0  0  0  0  0  0  0  0  0
   -8.3630   -2.5630  -22.7330 C   0  0  0  0  0  0  0  0  0  0  0  0
   -7.9960   -1.5760  -21.6450 C   0  0  0  0  0  0  0  0  0  0  0  0
   -8.6920   -0.5920  -21.4010 O   0  0  0  0  0  0  0  0  0  0  0  0
   -6.8410   -1.8490  -21.0080 N   0  0  0  0  0  0  0  0  0  0  0  0
   -6.2740   -1.0820  -19.9680 C   0  0  0  0  0  0  0  0  0  0  0  0
   -5.1500   -0.2840  -20.2240 C   0  0  0  0  0  0  0  0  0  0  0  0
   -4.5760   -0.1290  -21.6150 C   0  0  0  0  0  0  0  0  0  0  0  0
   -4.2590    1.3030  -21.9940 C   0  0  0  0  0  0  0  0  0  0  0  0
   -6.8010   -1.0970  -18.6790 C   0  0  0  0  0  0  0  0  0  0  0  0
   -6.2800   -0.4000  -17.6660 N   0  0  0  0  0  0  0  0  0  0  0  0
   -5.1920    0.3370  -17.9190 C   0  0  0  0  0  0  0  0  0  0  0  0
   -4.6020    0.4270  -19.1610 C   0  0  0  0  0  0  0  0  0  0  0  0
  2  1  1  1
  3  2  1  0
  4  2  1  0
  5  2  1  0
  6  5  2  0
  7  6  1  0
  8  7  2  0
  9  5  1  0
 10  9  2  0
 10  8  1  0
 11 10  1  0
 12 11  1  0
 13 12  2  0
 14 12  1  0
 15 14  1  0
 16 15  2  0
 17 16  1  0
 18 17  1  0
 19 15  1  0
 20 19  2  0
 21 20  1  0
 22 21  2  0
 22 16  1  0
M  END
$$$$

     RDKit          3D

 22 24  0  0  0  0  0  0  0  0999 V2000
  -14.0610   -2.5700  -21.1660 Cl  0  0  0  0  0  0  0  0  0  0  0  0
  -13.3710   -1.3720  -22.2260 C   0  0  0  0  0  0  0  0  0  0  0  0
  -14.1170   -0.2670  -22.5720 C   0  0  0  0  0  0  0  0  0  0  0  0
  -13.5370    0.7000  -23.3780 C   0  0  0  0  0  0  0  0  0  0  0  0
  -12.2330    0.5530  -23.8210 C   0  0  0  0  0  0  0  0  0  0  0  0
  -12.0750   -1.5440  -22.6760 C   0  0  0  0  0  0  0  0  0  0  0  0
  -11.4870   -0.5650  -23.4710 C   0  0  0  0  0  0  0  0  0  0  0  0
  -10.0570   -0.7230  -23.9560 C   0  0  2  0  0  0  0  0  0  0  0  0
  -10.0010   -1.3740  -25.3360 C   0  0  0  0  0  0  0  0  0  0  0  0
   -9.2440   -1.5110  -23.0260 N   0  0  0  0  0  0  0  0  0  0  0  0
   -8.6890   -0.9970  -21.9220 C   0  0  0  0  0  0  0  0  0  0  0  0
   -8.9200    0.1440  -21.5270 O   0  0  0  0  0  0  0  0  0  0  0  0
   -7.7600   -1.9310  -21.1640 C   0  0  0  0  0  0  0  0  0  0  0  0
   -7.0460   -1.2350  -20.1120 N   0  0  0  0  0  0  0  0  0  0  0  0
   -5.9360   -0.4480  -20.1960 C   0  0  0  0  0  0  0  0  0  0  0  0
   -5.6680   -0.0940  -18.8790 C   0  0  0  0  0  0  0  0  0  0  0  0
   -6.6250   -0.6610  -18.0660 N   0  0  0  0  0  0  0  0  0  0  0  0
   -7.4440   -1.3430  -18.8210 N   0  0  0  0  0  0  0  0  0  0  0  0
   -5.1680    0.0130  -21.2540 C   0  0  0  0  0  0  0  0  0  0  0  0
   -4.1040    0.8550  -20.9580 C   0  0  0  0  0  0  0  0  0  0  0  0
   -3.8180    1.2130  -19.6430 C   0  0  0  0  0  0  0  0  0  0  0  0
   -4.5900    0.7410  -18.5910 C   0  0  0  0  0  0  0  0  0  0  0  0
  2  1  1  0
  3  2  2  0
  4  3  1  0
  5  4  2  0
  6  2  1  0
  7  6  2  0
  7  5  1  0
  8  7  1  0
  8  9  1  6
 10  8  1  0
 11 10  1  0
 12 11  2  0
 13 11  1  0
 14 13  1  0
 15 14  1  0
 16 15  2  0
 17 16  1  0
 18 17  2  0
 18 14  1  0
 19 15  1  0
 20 19  2  0
 21 20  1  0
 22 16  1  0
 22 21  2  0
M  END
$$$$

     RDKit          3D

 14 14  0  0  0  0  0  0  0  0999 V2000
  -13.6180   -3.0090  -21.6940 Cl  0  0  0  0  0  0  0  0  0  0  0  0
  -12.2950   -2.3050  -22.5830 C   0  0  0  0  0  0  0  0  0  0  0  0
  -12.5240   -1.1980  -23.3710 C   0  0  0  0  0  0  0  0  0  0  0  0
  -11.4840   -0.7070  -24.1460 C   0  0  0  0  0  0  0  0  0  0  0  0
  -10.2340   -1.3060  -24.1000 C   0  0  0  0  0  0  0  0  0  0  0  0
  -11.0530   -2.9030  -22.5130 C   0  0  0  0  0  0  0  0  0  0  0  0
   -9.9990   -2.3930  -23.2650 C   0  0  0  0  0  0  0  0  0  0  0  0
   -8.6100   -2.9880  -23.1330 C   0  0  2  0  0  0  0  0  0  0  0  0
   -8.3710   -4.0170  -24.2320 C   0  0  0  0  0  0  0  0  0  0  0  0
   -7.0860   -4.6190  -24.1160 O   0  0  0  0  0  0  0  0  0  0  0  0
   -8.3920   -3.6270  -21.8380 N   0  0  0  0  0  0  0  0  0  0  0  0
   -7.9260   -2.9720  -20.7700 C   0  0  0  0  0  0  0  0  0  0  0  0
   -7.7280   -1.7600  -20.7710 O   0  0  0  0  0  0  0  0  0  0  0  0
   -7.6920   -3.7750  -19.5020 C   0  0  0  0  0  0  0  0  0  0  0  0
  2  1  1  0
  3  2  2  0
  4  3  1  0
  5  4  2  0
  6  2  1  0
  7  6  2  0
  7  5  1  0
  8  7  1  0
  8  9  1  6
 10  9  1  0
 11  8  1  0
 12 11  1  0
 13 12  2  0
 14 12  1  0
M  END
$$$$

     RDKit          3D

 25 27  0  0  0  0  0  0  0  0999 V2000
  -13.7780   -2.4750  -21.7170 Cl  0  0  0  0  0  0  0  0  0  0  0  0
  -12.4460   -1.9880  -22.7270 C   0  0  0  0  0  0  0  0  0  0  0  0
  -12.6750   -1.1150  -23.7710 C   0  0  0  0  0  0  0  0  0  0  0  0
  -11.5990   -0.6970  -24.5350 C   0  0  0  0  0  0  0  0  0  0  0  0
  -10.3190   -1.1380  -24.2380 C   0  0  0  0  0  0  0  0  0  0  0  0
  -11.1770   -2.4460  -22.4300 C   0  0  0  0  0  0  0  0  0  0  0  0
  -10.0900   -1.9920  -23.1660 C   0  0  0  0  0  0  0  0  0  0  0  0
   -8.6810   -2.3000  -22.7100 C   0  0  0  0  0  0  0  0  0  0  0  0
   -8.1200   -1.2260  -21.7970 C   0  0  0  0  0  0  0  0  0  0  0  0
   -8.7550   -0.2090  -21.5180 O   0  0  0  0  0  0  0  0  0  0  0  0
   -6.9040   -1.5100  -21.2900 N   0  0  0  0  0  0  0  0  0  0  0  0
   -6.2840   -0.9540  -20.1600 C   0  0  0  0  0  0  0  0  0  0  0  0
   -6.6940   -1.2080  -18.8530 C   0  0  0  0  0  0  0  0  0  0  0  0
   -6.1550   -0.6580  -17.7570 N   0  0  0  0  0  0  0  0  0  0  0  0
   -5.1590    0.2010  -17.9320 C   0  0  0  0  0  0  0  0  0  0  0  0
   -4.6290    0.5610  -19.1940 C   0  0  0  0  0  0  0  0  0  0  0  0
   -5.2000   -0.0450  -20.3470 C   0  0  0  0  0  0  0  0  0  0  0  0
   -4.6600    0.2910  -21.6160 C   0  0  0  0  0  0  0  0  0  0  0  0
   -3.6390    1.1910  -21.7330 C   0  0  0  0  0  0  0  0  0  0  0  0
   -3.5740    1.4880  -19.3560 C   0  0  0  0  0  0  0  0  0  0  0  0
   -3.0910    1.8090  -20.6010 C   0  0  0  0  0  0  0  0  0  0  0  0
   -1.9940    2.8190  -20.7520 C   0  0  0  0  0  0  0  0  0  0  0  0
   -1.5800    3.1350  -21.8640 O   0  0  0  0  0  0  0  0  0  0  0  0
   -1.4540    3.3050  -19.6330 N   0  0  0  0  0  0  0  0  0  0  0  0
   -0.1270    3.8980  -19.6150 C   0  0  0  0  0  0  0  0  0  0  0  0
  2  1  1  0
  3  2  2  0
  4  3  1  0
  5  4  2  0
  6  2  1  0
  7  6  2  0
  7  5  1  0
  8  7  1  0
  9  8  1  0
 10  9  2  0
 11  9  1  0
 12 11  1  0
 13 12  2  0
 14 13  1  0
 15 14  2  0
 16 15  1  0
 17 12  1  0
 17 16  2  0
 18 17  1  0
 19 18  2  0
 20 16  1  0
 21 20  2  0
 21 19  1  0
 22 21  1  0
 23 22  2  0
 24 22  1  0
 25 24  1  0
M  END
$$$$

     RDKit          3D

 21 23  0  0  0  0  0  0  0  0999 V2000
   -8.7910    0.1660  -21.6870 O   0  0  0  0  0  0  0  0  0  0  0  0
   -8.6970   -0.9930  -22.0780 C   0  0  0  0  0  0  0  0  0  0  0  0
   -7.6440   -1.9260  -21.4740 C   0  0  0  0  0  0  0  0  0  0  0  0
   -6.9950   -1.3200  -20.3300 N   0  0  0  0  0  0  0  0  0  0  0  0
   -5.9080   -0.5010  -20.2860 C   0  0  0  0  0  0  0  0  0  0  0  0
   -5.0760    0.0420  -21.2510 C   0  0  0  0  0  0  0  0  0  0  0  0
   -4.0850    0.9190  -20.8290 C   0  0  0  0  0  0  0  0  0  0  0  0
   -3.9230    1.2200  -19.4780 C   0  0  0  0  0  0  0  0  0  0  0  0
   -4.7520    0.6600  -18.5170 C   0  0  0  0  0  0  0  0  0  0  0  0
   -5.7640   -0.2000  -18.9340 C   0  0  0  0  0  0  0  0  0  0  0  0
   -6.7600   -0.8430  -18.2320 N   0  0  0  0  0  0  0  0  0  0  0  0
   -7.4880   -1.5100  -19.0810 N   0  0  0  0  0  0  0  0  0  0  0  0
   -9.4960   -1.4800  -23.0580 N   0  0  0  0  0  0  0  0  0  0  0  0
   -9.1510   -2.5820  -23.9480 C   0  0  0  0  0  0  0  0  0  0  0  0
  -10.7800   -0.8020  -23.3100 C   0  0  0  0  0  0  0  0  0  0  0  0
  -11.9120   -1.7270  -23.6950 C   0  0  0  0  0  0  0  0  0  0  0  0
  -12.4600   -2.6060  -22.7720 C   0  0  0  0  0  0  0  0  0  0  0  0
  -13.5810   -3.3560  -23.0870 C   0  0  0  0  0  0  0  0  0  0  0  0
  -14.1640   -3.2410  -24.3300 C   0  0  0  0  0  0  0  0  0  0  0  0
  -13.6260   -2.3830  -25.2580 C   0  0  0  0  0  0  0  0  0  0  0  0
  -12.5040   -1.6340  -24.9480 C   0  0  0  0  0  0  0  0  0  0  0  0
  2  1  2  0
  3  2  1  0
  4  3  1  0
  5  4  1  0
  6  5  2  0
  7  6  1  0
  8  7  2  0
  9  8  1  0
 10  5  1  0
 10  9  2  0
 11 10  1  0
 12 11  2  0
 12  4  1  0
 13  2  1  0
 14 13  1  0
 15 13  1  0
 16 15  1  0
 17 16  2  0
 18 17  1  0
 19 18  2  0
 20 19  1  0
 21 20  2  0
 21 16  1  0
M  END
$$$$

     RDKit          3D

 24 27  0  0  0  0  0  0  0  0999 V2000
   -9.3030    0.1370  -21.3700 O   0  0  0  0  0  0  0  0  0  0  0  0
   -8.8440   -0.8450  -21.9290 C   0  0  0  0  0  0  0  0  0  0  0  0
   -9.5090   -1.4140  -23.1790 C   0  0  2  0  0  0  0  0  0  0  0  0
  -11.0210   -1.2390  -23.1470 C   0  0  0  0  0  0  0  0  0  0  0  0
  -11.6460   -0.3000  -23.9590 C   0  0  0  0  0  0  0  0  0  0  0  0
  -13.0110   -0.0790  -23.8630 C   0  0  0  0  0  0  0  0  0  0  0  0
  -13.7760   -0.7980  -22.9550 C   0  0  0  0  0  0  0  0  0  0  0  0
  -11.7930   -1.9940  -22.2690 C   0  0  0  0  0  0  0  0  0  0  0  0
  -13.1520   -1.7580  -22.1800 C   0  0  0  0  0  0  0  0  0  0  0  0
  -14.1010   -2.6890  -21.0520 Cl  0  0  0  0  0  0  0  0  0  0  0  0
   -7.6780   -1.4340  -21.5060 N   0  0  0  0  0  0  0  0  0  0  0  0
   -7.1860   -2.7600  -21.9290 C   0  0  0  0  0  0  0  0  0  0  0  0
   -7.6410   -3.0880  -23.3370 C   0  0  0  0  0  0  0  0  0  0  0  0
   -9.1430   -2.8730  -23.4650 C   0  0  0  0  0  0  0  0  0  0  0  0
   -6.9600   -0.8820  -20.3970 C   0  0  0  0  0  0  0  0  0  0  0  0
   -5.8480   -0.0100  -20.5730 C   0  0  0  0  0  0  0  0  0  0  0  0
   -5.3380    0.3840  -21.8400 C   0  0  0  0  0  0  0  0  0  0  0  0
   -4.2450    1.2000  -21.9360 C   0  0  0  0  0  0  0  0  0  0  0  0
   -3.6160    1.6770  -20.7930 C   0  0  0  0  0  0  0  0  0  0  0  0
   -4.0760    1.3380  -19.5500 C   0  0  0  0  0  0  0  0  0  0  0  0
   -5.1960    0.4830  -19.4050 C   0  0  0  0  0  0  0  0  0  0  0  0
   -5.7020    0.0760  -18.1440 C   0  0  0  0  0  0  0  0  0  0  0  0
   -6.7400   -0.7370  -17.9860 N   0  0  0  0  0  0  0  0  0  0  0  0
   -7.3410   -1.1960  -19.0950 C   0  0  0  0  0  0  0  0  0  0  0  0
  2  1  2  0
  3  2  1  0
  3  4  1  1
  5  4  2  0
  6  5  1  0
  7  6  2  0
  8  4  1  0
  9  8  2  0
  9  7  1  0
 10  9  1  0
 11  2  1  0
 12 11  1  0
 13 12  1  0
 14 13  1  0
 14  3  1  0
 15 11  1  0
 16 15  1  0
 17 16  2  0
 18 17  1  0
 19 18  2  0
 20 19  1  0
 21 16  1  0
 21 20  2  0
 22 21  1  0
 23 22  2  0
 24 23  1  0
 24 15  2  0
M  END
$$$$

     RDKit          3D

 24 27  0  0  0  0  0  0  0  0999 V2000
   -8.6500   -0.4050  -21.5220 O   0  0  0  0  0  0  0  0  0  0  0  0
   -8.1730   -1.5320  -21.6060 C   0  0  0  0  0  0  0  0  0  0  0  0
   -8.6480   -2.5240  -22.6490 C   0  0  0  0  0  0  0  0  0  0  0  0
  -10.0760   -2.1670  -22.9920 C   0  0  0  0  0  0  0  0  0  0  0  0
  -10.3680   -1.2370  -23.9920 C   0  0  0  0  0  0  0  0  0  0  0  0
   -9.4500   -0.6090  -24.8020 O   0  0  0  0  0  0  0  0  0  0  0  0
  -10.2020    0.2380  -25.7170 C   0  0  0  0  0  0  0  0  0  0  0  0
  -11.6640    0.2370  -25.2680 C   0  0  0  0  0  0  0  0  0  0  0  0
  -11.6730   -0.8360  -24.2150 C   0  0  0  0  0  0  0  0  0  0  0  0
  -12.7130   -1.3770  -23.4690 C   0  0  0  0  0  0  0  0  0  0  0  0
  -11.1250   -2.7120  -22.2580 C   0  0  0  0  0  0  0  0  0  0  0  0
  -12.4220   -2.3190  -22.5080 C   0  0  0  0  0  0  0  0  0  0  0  0
  -13.7210   -3.0500  -21.6100 Cl  0  0  0  0  0  0  0  0  0  0  0  0
   -7.3050   -2.0200  -20.7200 N   0  0  0  0  0  0  0  0  0  0  0  0
   -6.3890   -1.3780  -19.8750 C   0  0  0  0  0  0  0  0  0  0  0  0
   -5.3830   -0.4770  -20.3520 C   0  0  0  0  0  0  0  0  0  0  0  0
   -4.9160   -0.4540  -21.6930 C   0  0  0  0  0  0  0  0  0  0  0  0
   -3.8150    0.2780  -22.0410 C   0  0  0  0  0  0  0  0  0  0  0  0
   -3.1380    1.0310  -21.0980 C   0  0  0  0  0  0  0  0  0  0  0  0
   -3.5650    1.0720  -19.8040 C   0  0  0  0  0  0  0  0  0  0  0  0
   -4.6930    0.3200  -19.3930 C   0  0  0  0  0  0  0  0  0  0  0  0
   -5.1010    0.2270  -18.0450 C   0  0  0  0  0  0  0  0  0  0  0  0
   -6.0630   -0.5620  -17.6150 N   0  0  0  0  0  0  0  0  0  0  0  0
   -6.6560   -1.3560  -18.5120 C   0  0  0  0  0  0  0  0  0  0  0  0
  2  1  2  0
  3  2  1  0
  4  3  1  0
  5  4  2  0
  6  5  1  0
  7  6  1  0
  8  7  2  0
  9  8  1  0
  9  5  1  0
 10  9  2  0
 11  4  1  0
 12 11  2  0
 12 10  1  0
 13 12  1  0
 14  2  1  0
 15 14  1  0
 16 15  1  0
 17 16  2  0
 18 17  1  0
 19 18  2  0
 20 19  1  0
 21 20  2  0
 21 16  1  0
 22 21  1  0
 23 22  2  0
 24 23  1  0
 24 15  2  0
M  END
$$$$

     RDKit          3D

 22 24  0  0  0  0  0  0  0  0999 V2000
   -9.1630   -0.1400  -21.2430 O   0  0  0  0  0  0  0  0  0  0  0  0
   -8.6010   -1.1720  -21.6200 C   0  0  0  0  0  0  0  0  0  0  0  0
   -9.2250   -2.0920  -22.6520 C   0  0  0  0  0  0  0  0  0  0  0  0
  -10.6750   -1.7880  -22.9430 C   0  0  0  0  0  0  0  0  0  0  0  0
  -11.0350   -0.7620  -23.7960 C   0  0  0  0  0  0  0  0  0  0  0  0
  -10.0460   -0.0630  -24.4020 F   0  0  0  0  0  0  0  0  0  0  0  0
  -12.3410   -0.3850  -24.0170 C   0  0  0  0  0  0  0  0  0  0  0  0
  -13.3470   -1.0410  -23.3330 C   0  0  0  0  0  0  0  0  0  0  0  0
  -11.6940   -2.4410  -22.2570 C   0  0  0  0  0  0  0  0  0  0  0  0
  -12.9940   -2.0370  -22.4560 C   0  0  0  0  0  0  0  0  0  0  0  0
  -13.9640   -2.5950  -21.6820 F   0  0  0  0  0  0  0  0  0  0  0  0
   -7.4050   -1.5870  -21.1500 N   0  0  0  0  0  0  0  0  0  0  0  0
   -6.6490   -1.0110  -20.1080 C   0  0  0  0  0  0  0  0  0  0  0  0
   -5.5390   -0.1770  -20.4450 C   0  0  0  0  0  0  0  0  0  0  0  0
   -5.1080    0.0700  -21.7730 C   0  0  0  0  0  0  0  0  0  0  0  0
   -4.0610    0.9120  -22.0270 C   0  0  0  0  0  0  0  0  0  0  0  0
   -3.3960    1.5480  -20.9910 C   0  0  0  0  0  0  0  0  0  0  0  0
   -3.7710    1.3430  -19.6940 C   0  0  0  0  0  0  0  0  0  0  0  0
   -4.8480    0.4760  -19.3840 C   0  0  0  0  0  0  0  0  0  0  0  0
   -5.3030    0.2440  -18.0600 C   0  0  0  0  0  0  0  0  0  0  0  0
   -6.3320   -0.5330  -17.7500 N   0  0  0  0  0  0  0  0  0  0  0  0
   -6.9750   -1.1400  -18.7590 C   0  0  0  0  0  0  0  0  0  0  0  0
  2  1  2  0
  3  2  1  0
  4  3  1  0
  5  4  2  0
  6  5  1  0
  7  5  1  0
  8  7  2  0
  9  4  1  0
 10  9  2  0
 10  8  1  0
 11 10  1  0
 12  2  1  0
 13 12  1  0
 14 13  1  0
 15 14  2  0
 16 15  1  0
 17 16  2  0
 18 17  1  0
 19 14  1  0
 19 18  2  0
 20 19  1  0
 21 20  2  0
 22 21  1  0
 22 13  2  0
M  END
$$$$

     RDKit          3D

 15 14  0  0  0  0  0  0  0  0999 V2000
   -0.8140   -9.5730  -21.2490 C   0  0  0  0  0  0  0  0  0  0  0  0
   -1.0810   -8.3000  -21.9870 C   0  0  0  0  0  0  0  0  0  0  0  0
   -2.5920   -7.0510  -23.4540 C   0  0  1  0  0  0  0  0  0  0  0  0
   -2.2550   -7.3310  -24.9220 C   0  0  0  0  0  0  0  0  0  0  0  0
   -2.4750   -8.7850  -25.2860 C   0  0  0  0  0  0  0  0  0  0  0  0
   -4.0260   -6.5190  -23.3320 C   0  0  0  0  0  0  0  0  0  0  0  0
   -6.0980   -6.4600  -22.0110 C   0  0  0  0  0  0  0  0  0  0  0  0
   -6.1570   -6.3050  -20.5000 C   0  0  0  0  0  0  0  0  0  0  0  0
   -5.3240   -7.0300  -19.7800 C   0  0  0  0  0  0  0  0  0  0  0  0
   -2.2670   -8.1930  -22.6010 N   0  0  0  0  0  0  0  0  0  0  0  0
   -1.7920   -9.2500  -26.3210 N   0  0  0  0  0  0  0  0  0  0  0  0
   -4.8910   -7.1240  -22.5050 N   0  0  0  0  0  0  0  0  0  0  0  0
   -0.2520   -7.3930  -22.0100 O   0  0  0  0  0  0  0  0  0  0  0  0
   -3.2680   -9.4780  -24.6560 O   0  0  0  0  0  0  0  0  0  0  0  0
   -4.3470   -5.5360  -23.9960 O   0  0  0  0  0  0  0  0  0  0  0  0
  2  1  1  0
  3  4  1  6
  5  4  1  0
  6  3  1  0
  8  7  1  0
  9  8  2  0
 10  3  1  0
 10  2  1  0
 11  5  1  0
 12  7  1  0
 12  6  1  0
 13  2  2  0
 14  5  2  0
 15  6  2  0
M  END
$$$$

     RDKit          3D

 36 40  0  0  0  0  0  0  0  0999 V2000
   -8.7540   -0.0840  -21.2740 O   0  0  0  0  0  0  0  0  0  0  0  0
   -8.2200   -1.1580  -21.5600 C   0  0  0  0  0  0  0  0  0  0  0  0
   -7.0730   -1.6090  -20.9950 N   0  0  0  0  0  0  0  0  0  0  0  0
   -6.3250   -0.9980  -19.9730 C   0  0  0  0  0  0  0  0  0  0  0  0
   -5.2350   -0.1390  -20.3270 C   0  0  0  0  0  0  0  0  0  0  0  0
   -4.7570    0.0280  -21.6530 C   0  0  0  0  0  0  0  0  0  0  0  0
   -3.7460    0.9050  -21.9320 C   0  0  0  0  0  0  0  0  0  0  0  0
   -3.1560    1.6500  -20.9170 C   0  0  0  0  0  0  0  0  0  0  0  0
   -3.5690    1.5140  -19.6220 C   0  0  0  0  0  0  0  0  0  0  0  0
   -4.6130    0.6140  -19.2920 C   0  0  0  0  0  0  0  0  0  0  0  0
   -5.0880    0.4330  -17.9700 C   0  0  0  0  0  0  0  0  0  0  0  0
   -6.0820   -0.3780  -17.6390 N   0  0  0  0  0  0  0  0  0  0  0  0
   -6.6760   -1.0660  -18.6230 C   0  0  0  0  0  0  0  0  0  0  0  0
   -8.8320   -2.1250  -22.6040 C   0  0  1  0  0  0  0  0  0  0  0  0
  -10.2570   -1.7600  -23.0020 C   0  0  0  0  0  0  0  0  0  0  0  0
  -10.5300   -0.6560  -23.8010 C   0  0  0  0  0  0  0  0  0  0  0  0
  -11.8370   -0.3170  -24.1190 C   0  0  0  0  0  0  0  0  0  0  0  0
  -12.8920   -1.0820  -23.6460 C   0  0  0  0  0  0  0  0  0  0  0  0
  -11.3140   -2.5350  -22.5380 C   0  0  0  0  0  0  0  0  0  0  0  0
  -12.6110   -2.1780  -22.8510 C   0  0  0  0  0  0  0  0  0  0  0  0
  -13.9240   -3.0980  -22.1800 Cl  0  0  0  0  0  0  0  0  0  0  0  0
   -7.9840   -2.4550  -23.7420 N   0  0  0  0  0  0  0  0  0  0  0  0
   -7.2300   -1.5580  -24.3910 C   0  0  0  0  0  0  0  0  0  0  0  0
   -7.3060   -0.3420  -24.2150 O   0  0  0  0  0  0  0  0  0  0  0  0
   -6.2660   -2.1180  -25.4280 C   0  0  1  0  0  0  0  0  0  0  0  0
   -6.2230   -3.5610  -25.3760 O   0  0  0  0  0  0  0  0  0  0  0  0
   -6.9120   -4.1580  -26.5030 C   0  0  2  0  0  0  0  0  0  0  0  0
   -7.5980   -2.9860  -27.1990 C   0  0  0  0  0  0  0  0  0  0  0  0
   -6.6930   -1.7960  -26.8440 C   0  0  0  0  0  0  0  0  0  0  0  0
   -7.9010   -5.2330  -26.0300 C   0  0  0  0  0  0  0  0  0  0  0  0
   -8.3450   -5.2110  -24.8940 O   0  0  0  0  0  0  0  0  0  0  0  0
   -8.2720   -6.1810  -26.9110 N   0  0  0  0  0  0  0  0  0  0  0  0
   -7.6280   -6.4830  -28.1910 C   0  0  0  0  0  0  0  0  0  0  0  0
   -8.7630   -7.0140  -29.0240 C   0  0  0  0  0  0  0  0  0  0  0  0
   -9.6160   -7.7640  -28.0150 C   0  0  0  0  0  0  0  0  0  0  0  0
   -9.4220   -7.0600  -26.6780 C   0  0  0  0  0  0  0  0  0  0  0  0
  2  1  2  0
  3  2  1  0
  4  3  1  0
  5  4  1  0
  6  5  2  0
  7  6  1  0
  8  7  2  0
  9  8  1  0
 10  9  2  0
 10  5  1  0
 11 10  1  0
 12 11  2  0
 13 12  1  0
 13  4  2  0
 14  2  1  0
 15 14  1  0
 16 15  2  0
 17 16  1  0
 18 17  2  0
 19 15  1  0
 20 19  2  0
 20 18  1  0
 21 20  1  0
 14 22  1  6
 23 22  1  0
 24 23  2  0
 25 23  1  1
 26 25  1  0
 27 26  1  0
 28 27  1  0
 29 28  1  0
 29 25  1  0
 27 30  1  1
 31 30  2  0
 32 30  1  0
 33 32  1  0
 34 33  1  0
 35 34  1  0
 36 35  1  0
 36 32  1  0
M  END
$$$$

     RDKit          3D

 23 26  0  0  0  0  0  0  0  0999 V2000
   -9.1270    0.0270  -21.2130 O   0  0  0  0  0  0  0  0  0  0  0  0
   -8.6030   -1.0670  -21.3710 C   0  0  0  0  0  0  0  0  0  0  0  0
   -9.2290   -2.3160  -21.9640 C   0  0  1  0  0  0  0  0  0  0  0  0
  -10.5450   -2.0520  -22.6780 C   0  0  0  0  0  0  0  0  0  0  0  0
  -10.7000   -1.1080  -23.6850 C   0  0  0  0  0  0  0  0  0  0  0  0
  -11.9670   -0.7040  -24.0820 C   0  0  0  0  0  0  0  0  0  0  0  0
  -13.0940   -1.2330  -23.4660 C   0  0  0  0  0  0  0  0  0  0  0  0
  -11.6720   -2.6300  -22.1130 C   0  0  0  0  0  0  0  0  0  0  0  0
  -12.9210   -2.1830  -22.4720 C   0  0  0  0  0  0  0  0  0  0  0  0
  -14.2920   -2.7070  -21.5310 Cl  0  0  0  0  0  0  0  0  0  0  0  0
   -7.3200   -1.4050  -21.0810 N   0  0  0  0  0  0  0  0  0  0  0  0
   -6.8720   -2.5810  -21.8580 C   0  0  0  0  0  0  0  0  0  0  0  0
   -8.0640   -2.8720  -22.7860 C   0  0  0  0  0  0  0  0  0  0  0  0
   -6.5180   -0.8060  -20.0620 C   0  0  0  0  0  0  0  0  0  0  0  0
   -5.4190    0.0450  -20.3690 C   0  0  0  0  0  0  0  0  0  0  0  0
   -5.0330    0.4070  -21.6880 C   0  0  0  0  0  0  0  0  0  0  0  0
   -3.9930    1.2660  -21.9050 C   0  0  0  0  0  0  0  0  0  0  0  0
   -3.2830    1.8010  -20.8400 C   0  0  0  0  0  0  0  0  0  0  0  0
   -3.6170    1.4860  -19.5530 C   0  0  0  0  0  0  0  0  0  0  0  0
   -4.6940    0.6070  -19.2810 C   0  0  0  0  0  0  0  0  0  0  0  0
   -5.1250    0.2910  -17.9680 C   0  0  0  0  0  0  0  0  0  0  0  0
   -6.1590   -0.4880  -17.6900 N   0  0  0  0  0  0  0  0  0  0  0  0
   -6.8240   -1.0170  -18.7220 C   0  0  0  0  0  0  0  0  0  0  0  0
  2  1  2  0
  3  2  1  0
  3  4  1  6
  5  4  2  0
  6  5  1  0
  7  6  2  0
  8  4  1  0
  9  8  2  0
  9  7  1  0
 10  9  1  0
 11  2  1  0
 12 11  1  0
 13 12  1  0
 13  3  1  0
 14 11  1  0
 15 14  1  0
 16 15  2  0
 17 16  1  0
 18 17  2  0
 19 18  1  0
 20 19  2  0
 20 15  1  0
 21 20  1  0
 22 21  2  0
 23 22  1  0
 23 14  2  0
M  END
$$$$

     RDKit          3D

 22 24  0  0  0  0  0  0  0  0999 V2000
   -9.2770   -0.0980  -21.4400 O   0  0  0  0  0  0  0  0  0  0  0  0
   -8.9590   -1.2640  -21.6580 C   0  0  0  0  0  0  0  0  0  0  0  0
   -7.8490   -1.8550  -21.1550 N   0  0  0  0  0  0  0  0  0  0  0  0
   -6.9300   -1.2490  -20.2670 C   0  0  0  0  0  0  0  0  0  0  0  0
   -5.7410   -0.6910  -20.7550 C   0  0  0  0  0  0  0  0  0  0  0  0
   -5.3270   -0.8050  -22.2140 C   0  0  2  0  0  0  0  0  0  0  0  0
   -4.3300    0.1500  -22.7990 C   0  0  0  0  0  0  0  0  0  0  0  0
   -5.7410    0.2140  -23.2360 C   0  0  0  0  0  0  0  0  0  0  0  0
   -4.9080   -0.0400  -19.8500 C   0  0  0  0  0  0  0  0  0  0  0  0
   -5.2680    0.0100  -18.5190 C   0  0  0  0  0  0  0  0  0  0  0  0
   -6.3920   -0.5240  -18.0360 N   0  0  0  0  0  0  0  0  0  0  0  0
   -7.2010   -1.1420  -18.9030 C   0  0  0  0  0  0  0  0  0  0  0  0
   -9.8130   -2.1670  -22.5300 C   0  0  0  0  0  0  0  0  0  0  0  0
   -9.0240   -3.0200  -23.4110 N   0  0  2  0  0  0  0  0  0  0  0  0
   -8.2680   -2.2270  -24.3850 C   0  0  0  0  0  0  0  0  0  0  0  0
   -7.3250   -3.1260  -25.1570 C   0  0  0  0  0  0  0  0  0  0  0  0
   -9.8660   -3.9840  -24.1270 C   0  0  0  0  0  0  0  0  0  0  0  0
   -8.9960   -4.9500  -24.9210 C   0  0  0  0  0  0  0  0  0  0  0  0
   -8.0770   -4.2110  -25.8020 N   0  0  0  0  0  0  0  0  0  0  0  0
   -7.8680   -4.4680  -27.1130 C   0  0  0  0  0  0  0  0  0  0  0  0
   -7.5190   -3.5770  -27.8730 O   0  0  0  0  0  0  0  0  0  0  0  0
   -8.0140   -5.8840  -27.5860 C   0  0  0  0  0  0  0  0  0  0  0  0
  2  1  2  0
  3  2  1  0
  4  3  1  0
  5  4  1  0
  6  5  1  1
  7  6  1  0
  8  7  1  0
  8  6  1  0
  9  5  2  0
 10  9  1  0
 11 10  2  0
 12 11  1  0
 12  4  2  0
 13  2  1  0
 14 13  1  6
 15 14  1  0
 16 15  1  0
 17 14  1  0
 18 17  1  0
 19 18  1  0
 19 16  1  0
 20 19  1  0
 21 20  2  0
 22 20  1  0
M  CHG  1  14   1
M  END
$$$$

     RDKit          3D

 21 23  0  0  0  0  0  0  0  0999 V2000
   -8.5980   -0.0980  -21.1770 O   0  0  0  0  0  0  0  0  0  0  0  0
   -7.9850   -1.0920  -21.5700 C   0  0  0  0  0  0  0  0  0  0  0  0
   -8.3460   -1.7930  -22.8620 C   0  0  0  0  0  0  0  0  0  0  0  0
   -9.8400   -1.9130  -23.0190 C   0  0  0  0  0  0  0  0  0  0  0  0
  -10.5580   -2.8850  -22.3360 C   0  0  0  0  0  0  0  0  0  0  0  0
  -11.9270   -2.9400  -22.5110 C   0  0  0  0  0  0  0  0  0  0  0  0
  -10.4260   -1.0140  -23.8300 N   0  0  0  0  0  0  0  0  0  0  0  0
  -11.7540   -1.0790  -23.9890 C   0  0  0  0  0  0  0  0  0  0  0  0
  -12.5240   -2.0410  -23.3580 C   0  0  0  0  0  0  0  0  0  0  0  0
  -14.2200   -2.1940  -23.7080 Cl  0  0  0  0  0  0  0  0  0  0  0  0
   -6.9260   -1.6290  -20.9290 N   0  0  0  0  0  0  0  0  0  0  0  0
   -6.2270   -1.0850  -19.8420 C   0  0  0  0  0  0  0  0  0  0  0  0
   -5.1630   -0.1780  -20.1310 C   0  0  0  0  0  0  0  0  0  0  0  0
   -4.6210    0.0160  -21.4270 C   0  0  0  0  0  0  0  0  0  0  0  0
   -3.6100    0.9100  -21.6390 C   0  0  0  0  0  0  0  0  0  0  0  0
   -3.0930    1.6540  -20.5890 C   0  0  0  0  0  0  0  0  0  0  0  0
   -3.5740    1.4940  -19.3200 C   0  0  0  0  0  0  0  0  0  0  0  0
   -4.6150    0.5690  -19.0540 C   0  0  0  0  0  0  0  0  0  0  0  0
   -5.1320    0.3290  -17.7570 C   0  0  0  0  0  0  0  0  0  0  0  0
   -6.0920   -0.5460  -17.4850 N   0  0  0  0  0  0  0  0  0  0  0  0
   -6.6180   -1.2270  -18.5130 C   0  0  0  0  0  0  0  0  0  0  0  0
  2  1  2  0
  3  2  1  0
  4  3  1  0
  5  4  2  0
  6  5  1  0
  7  4  1  0
  8  7  2  0
  9  8  1  0
  9  6  2  0
 10  9  1  0
 11  2  1  0
 12 11  1  0
 13 12  1  0
 14 13  2  0
 15 14  1  0
 16 15  2  0
 17 16  1  0
 18 17  2  0
 18 13  1  0
 19 18  1  0
 20 19  2  0
 21 20  1  0
 21 12  2  0
M  END
$$$$

     RDKit          3D

 34 38  0  0  0  0  0  0  0  0999 V2000
   -9.1240    0.1940  -21.3540 O   0  0  0  0  0  0  0  0  0  0  0  0
   -8.6950   -0.9060  -21.6760 C   0  0  0  0  0  0  0  0  0  0  0  0
   -7.7760   -1.5300  -20.9160 N   0  0  0  0  0  0  0  0  0  0  0  0
   -6.7410   -1.1080  -20.0640 C   0  0  0  0  0  0  0  0  0  0  0  0
   -5.7350   -0.1760  -20.4910 C   0  0  0  0  0  0  0  0  0  0  0  0
   -5.3940    0.0500  -21.8510 C   0  0  0  0  0  0  0  0  0  0  0  0
   -4.3310    0.8420  -22.1880 C   0  0  0  0  0  0  0  0  0  0  0  0
   -3.5660    1.4590  -21.2070 C   0  0  0  0  0  0  0  0  0  0  0  0
   -3.8640    1.2870  -19.8850 C   0  0  0  0  0  0  0  0  0  0  0  0
   -4.9460    0.4600  -19.4910 C   0  0  0  0  0  0  0  0  0  0  0  0
   -5.2320    0.1640  -18.1410 C   0  0  0  0  0  0  0  0  0  0  0  0
   -6.1620   -0.6860  -17.7450 N   0  0  0  0  0  0  0  0  0  0  0  0
   -6.8670   -1.3130  -18.6940 C   0  0  0  0  0  0  0  0  0  0  0  0
   -9.2800   -1.6620  -22.8950 C   0  0  2  0  0  0  0  0  0  0  0  0
   -8.5850   -1.0250  -24.1240 C   0  0  0  0  0  0  0  0  0  0  0  0
   -9.1700    0.3290  -24.4630 C   0  0  0  0  0  0  0  0  0  0  0  0
  -10.5760    0.2550  -24.7450 O   0  0  0  0  0  0  0  0  0  0  0  0
  -10.7870   -1.4060  -22.9730 C   0  0  0  0  0  0  0  0  0  0  0  0
  -11.3300   -0.4470  -23.8370 C   0  0  0  0  0  0  0  0  0  0  0  0
  -12.6920   -0.1950  -23.8780 C   0  0  0  0  0  0  0  0  0  0  0  0
  -13.5400   -0.9120  -23.0570 C   0  0  0  0  0  0  0  0  0  0  0  0
  -11.6600   -2.1400  -22.1720 C   0  0  0  0  0  0  0  0  0  0  0  0
  -13.0140   -1.8680  -22.2120 C   0  0  0  0  0  0  0  0  0  0  0  0
  -14.0690   -2.6730  -21.0800 Cl  0  0  0  0  0  0  0  0  0  0  0  0
   -9.0430   -3.1930  -22.8800 C   0  0  0  0  0  0  0  0  0  0  0  0
   -9.1770   -3.7960  -24.1940 N   0  0  0  0  0  0  0  0  0  0  0  0
   -8.2420   -4.5730  -24.7240 C   0  0  0  0  0  0  0  0  0  0  0  0
   -7.6430   -5.4430  -24.0910 O   0  0  0  0  0  0  0  0  0  0  0  0
   -7.8730   -4.2270  -26.1560 C   0  0  0  0  0  0  0  0  0  0  0  0
   -8.3600   -5.1720  -27.1550 N   0  0  0  0  0  0  0  0  0  0  0  0
   -9.4390   -5.9700  -27.0650 C   0  0  0  0  0  0  0  0  0  0  0  0
   -9.5790   -6.7390  -28.1210 N   0  0  0  0  0  0  0  0  0  0  0  0
   -8.5310   -6.4020  -28.9420 C   0  0  0  0  0  0  0  0  0  0  0  0
   -7.7730   -5.4420  -28.3690 C   0  0  0  0  0  0  0  0  0  0  0  0
  2  1  2  0
  3  2  1  0
  4  3  1  0
  5  4  1  0
  6  5  2  0
  7  6  1  0
  8  7  2  0
  9  8  1  0
 10  5  1  0
 10  9  2  0
 11 10  1  0
 12 11  2  0
 13 12  1  0
 13  4  2  0
 14  2  1  0
 15 14  1  0
 16 15  1  0
 17 16  1  0
 18 14  1  0
 19 18  2  0
 19 17  1  0
 20 19  1  0
 21 20  2  0
 22 18  1  0
 23 22  2  0
 23 21  1  0
 24 23  1  0
 14 25  1  1
 26 25  1  0
 27 26  1  0
 28 27  2  0
 29 27  1  0
 30 29  1  0
 31 30  1  0
 32 31  2  0
 33 32  1  0
 34 33  2  0
 34 30  1  0
M  END
$$$$

     RDKit          3D

 25 27  0  0  0  0  0  0  0  0999 V2000
  -13.2380   -0.5510  -24.0070 Cl  0  0  0  0  0  0  0  0  0  0  0  0
  -11.5660   -0.9710  -24.2220 C   0  0  0  0  0  0  0  0  0  0  0  0
  -10.9050   -1.6170  -23.2000 C   0  0  0  0  0  0  0  0  0  0  0  0
  -10.9500   -0.6850  -25.4260 C   0  0  0  0  0  0  0  0  0  0  0  0
   -9.6310   -1.0840  -25.6140 C   0  0  0  0  0  0  0  0  0  0  0  0
   -8.9980   -0.8050  -26.8230 N   0  0  0  0  0  0  0  0  0  0  0  0
   -7.6300   -1.1570  -27.1820 C   0  0  2  0  0  0  0  0  0  0  0  0
   -6.6120   -0.0670  -26.7970 C   0  0  1  0  0  0  0  0  0  0  0  0
   -6.2640   -0.1150  -25.4120 O   0  0  0  0  0  0  0  0  0  0  0  0
   -5.4120   -0.4040  -27.6700 C   0  0  0  0  0  0  0  0  0  0  0  0
   -5.9960   -0.9000  -28.9870 C   0  0  0  0  0  0  0  0  0  0  0  0
   -7.4430   -1.3070  -28.7000 C   0  0  0  0  0  0  0  0  0  0  0  0
   -8.9580   -1.7460  -24.5900 C   0  0  0  0  0  0  0  0  0  0  0  0
   -9.5830   -2.0030  -23.3760 C   0  0  0  0  0  0  0  0  0  0  0  0
   -8.8170   -2.6300  -22.2390 C   0  0  0  0  0  0  0  0  0  0  0  0
   -8.1900   -1.5560  -21.3740 C   0  0  0  0  0  0  0  0  0  0  0  0
   -8.7540   -0.4850  -21.1510 O   0  0  0  0  0  0  0  0  0  0  0  0
   -6.9830   -1.8830  -20.8720 N   0  0  0  0  0  0  0  0  0  0  0  0
   -6.3300   -1.1200  -19.8820 C   0  0  0  0  0  0  0  0  0  0  0  0
   -5.2560   -0.2900  -20.2380 C   0  0  0  0  0  0  0  0  0  0  0  0
   -4.7960   -0.1480  -21.6660 C   0  0  0  0  0  0  0  0  0  0  0  0
   -6.7490   -1.1390  -18.5520 C   0  0  0  0  0  0  0  0  0  0  0  0
   -6.1780   -0.4120  -17.5890 N   0  0  0  0  0  0  0  0  0  0  0  0
   -5.1400    0.3590  -17.9390 C   0  0  0  0  0  0  0  0  0  0  0  0
   -4.6550    0.4480  -19.2260 C   0  0  0  0  0  0  0  0  0  0  0  0
  2  1  1  0
  3  2  2  0
  4  2  1  0
  5  4  2  0
  6  5  1  0
  7  6  1  6
  8  7  1  0
  8  9  1  1
 10  8  1  0
 11 10  1  0
 12 11  1  0
 12  7  1  0
 13  5  1  0
 14  3  1  0
 14 13  2  0
 15 14  1  0
 16 15  1  0
 17 16  2  0
 18 16  1  0
 19 18  1  0
 20 19  2  0
 21 20  1  0
 22 19  1  0
 23 22  2  0
 24 23  1  0
 25 24  2  0
 25 20  1  0
M  END
$$$$

     RDKit          3D

 25 28  0  0  0  0  0  0  0  0999 V2000
   -8.6550   -0.1810  -21.3800 O   0  0  0  0  0  0  0  0  0  0  0  0
   -8.1640   -1.2810  -21.6250 C   0  0  0  0  0  0  0  0  0  0  0  0
   -8.6780   -2.1710  -22.7600 C   0  0  2  0  0  0  0  0  0  0  0  0
   -7.8780   -1.9770  -24.0620 C   0  0  0  0  0  0  0  0  0  0  0  0
   -8.1640   -0.6150  -24.6540 C   0  0  0  0  0  0  0  0  0  0  0  0
   -9.5780   -0.3550  -24.8570 O   0  0  0  0  0  0  0  0  0  0  0  0
  -10.1380   -1.8640  -23.0230 C   0  0  0  0  0  0  0  0  0  0  0  0
  -10.4960   -0.9770  -24.0460 C   0  0  0  0  0  0  0  0  0  0  0  0
  -11.8390   -0.7150  -24.2960 C   0  0  0  0  0  0  0  0  0  0  0  0
  -12.2880    0.2630  -25.6580 Cl  0  0  0  0  0  0  0  0  0  0  0  0
  -12.8350   -1.2990  -23.5390 C   0  0  0  0  0  0  0  0  0  0  0  0
  -11.1490   -2.4720  -22.2790 C   0  0  0  0  0  0  0  0  0  0  0  0
  -12.4700   -2.1770  -22.5420 C   0  0  0  0  0  0  0  0  0  0  0  0
  -13.7130   -2.9180  -21.5720 Cl  0  0  0  0  0  0  0  0  0  0  0  0
   -7.1330   -1.8070  -20.9230 N   0  0  0  0  0  0  0  0  0  0  0  0
   -6.4220   -1.2310  -19.8540 C   0  0  0  0  0  0  0  0  0  0  0  0
   -5.3500   -0.3330  -20.1480 C   0  0  0  0  0  0  0  0  0  0  0  0
   -4.8220   -0.1320  -21.4530 C   0  0  0  0  0  0  0  0  0  0  0  0
   -3.8280    0.7810  -21.6770 C   0  0  0  0  0  0  0  0  0  0  0  0
   -3.3040    1.5290  -20.6300 C   0  0  0  0  0  0  0  0  0  0  0  0
   -3.7660    1.3590  -19.3540 C   0  0  0  0  0  0  0  0  0  0  0  0
   -4.7950    0.4210  -19.0790 C   0  0  0  0  0  0  0  0  0  0  0  0
   -5.3190    0.2030  -17.7810 C   0  0  0  0  0  0  0  0  0  0  0  0
   -6.2910   -0.6520  -17.5010 N   0  0  0  0  0  0  0  0  0  0  0  0
   -6.8130   -1.3470  -18.5200 C   0  0  0  0  0  0  0  0  0  0  0  0
  2  1  2  0
  3  2  1  1
  4  3  1  0
  5  4  1  0
  6  5  1  0
  7  3  1  0
  8  7  2  0
  8  6  1  0
  9  8  1  0
 10  9  1  0
 11  9  2  0
 12  7  1  0
 13 12  2  0
 13 11  1  0
 14 13  1  0
 15  2  1  0
 16 15  1  0
 17 16  1  0
 18 17  2  0
 19 18  1  0
 20 19  2  0
 21 20  1  0
 22 21  2  0
 22 17  1  0
 23 22  1  0
 24 23  2  0
 25 24  1  0
 25 16  2  0
M  END
$$$$

     RDKit          3D

 21 23  0  0  0  0  0  0  0  0999 V2000
   -5.1380   -4.1350  -21.3860 O   0  0  0  0  0  0  0  0  0  0  0  0
   -5.3890   -3.6760  -22.4960 C   0  0  0  0  0  0  0  0  0  0  0  0
   -4.7170   -4.0590  -23.5770 N   0  0  0  0  0  0  0  0  0  0  0  0
   -5.1780   -3.9570  -24.9650 C   0  0  0  0  0  0  0  0  0  0  0  0
   -6.0010   -2.6930  -25.1440 C   0  0  0  0  0  0  0  0  0  0  0  0
   -6.4740   -2.6530  -22.6840 C   0  0  0  0  0  0  0  0  0  0  0  0
   -7.0940   -2.5900  -24.0820 C   0  0  2  0  0  0  0  0  0  0  0  0
   -8.1060   -3.6320  -24.2620 N   0  0  0  0  0  0  0  0  0  0  0  0
   -9.2810   -3.3870  -24.8490 C   0  0  0  0  0  0  0  0  0  0  0  0
   -9.6140   -2.2650  -25.2140 O   0  0  0  0  0  0  0  0  0  0  0  0
  -10.1660   -4.6140  -25.0750 C   0  0  2  0  0  0  0  0  0  0  0  0
   -9.8060   -5.2390  -26.4370 C   0  0  0  0  0  0  0  0  0  0  0  0
  -10.9930   -5.9590  -27.0160 C   0  0  0  0  0  0  0  0  0  0  0  0
  -12.1450   -5.1060  -27.1300 O   0  0  0  0  0  0  0  0  0  0  0  0
  -11.6210   -4.2050  -24.9390 C   0  0  0  0  0  0  0  0  0  0  0  0
  -12.1060   -3.5750  -23.7940 C   0  0  0  0  0  0  0  0  0  0  0  0
  -13.4450   -3.2540  -23.7020 C   0  0  0  0  0  0  0  0  0  0  0  0
  -14.0420   -2.5440  -22.2250 Cl  0  0  0  0  0  0  0  0  0  0  0  0
  -12.5260   -4.4930  -25.9660 C   0  0  0  0  0  0  0  0  0  0  0  0
  -13.8670   -4.1570  -25.8680 C   0  0  0  0  0  0  0  0  0  0  0  0
  -14.3280   -3.5230  -24.7260 C   0  0  0  0  0  0  0  0  0  0  0  0
  2  1  2  0
  3  2  1  0
  4  3  1  0
  5  4  1  0
  6  2  1  0
  7  6  1  0
  7  5  1  0
  7  8  1  6
  9  8  1  0
 10  9  2  0
 11  9  1  6
 12 11  1  0
 13 12  1  0
 14 13  1  0
 15 11  1  0
 16 15  1  0
 17 16  2  0
 18 17  1  0
 19 15  2  0
 19 14  1  0
 20 19  1  0
 21 20  2  0
 21 17  1  0
M  END
$$$$

     RDKit          3D

 29 32  0  0  0  0  0  0  0  0999 V2000
   -6.4490    0.1260  -17.1230 O   0  0  0  0  0  0  0  0  0  0  0  0
   -5.7630   -0.0900  -18.1270 C   0  0  0  0  0  0  0  0  0  0  0  0
   -5.9440   -1.2160  -18.9830 C   0  0  0  0  0  0  0  0  0  0  0  0
   -4.8040    0.8080  -18.5140 N   0  0  0  0  0  0  0  0  0  0  0  0
   -4.0620    0.7110  -19.6830 C   0  0  0  0  0  0  0  0  0  0  0  0
   -4.2740   -0.3810  -20.5480 C   0  0  0  0  0  0  0  0  0  0  0  0
   -3.5600   -0.4470  -21.7440 C   0  0  0  0  0  0  0  0  0  0  0  0
   -2.6140    0.5190  -22.0440 C   0  0  0  0  0  0  0  0  0  0  0  0
   -2.3850    1.5660  -21.1770 C   0  0  0  0  0  0  0  0  0  0  0  0
   -3.1100    1.6780  -20.0010 C   0  0  0  0  0  0  0  0  0  0  0  0
   -5.2410   -1.3930  -20.1360 C   0  0  0  0  0  0  0  0  0  0  0  0
   -5.4030   -2.6770  -20.8810 C   0  0  0  0  0  0  0  0  0  0  0  0
   -4.8270   -3.6830  -20.4820 O   0  0  0  0  0  0  0  0  0  0  0  0
   -6.1800   -2.6910  -21.9740 N   0  0  0  0  0  0  0  0  0  0  0  0
   -6.1580   -3.7830  -22.9550 C   0  0  0  0  0  0  0  0  0  0  0  0
   -7.5590   -4.3550  -23.1390 C   0  0  0  0  0  0  0  0  0  0  0  0
   -7.1470   -1.6300  -22.2840 C   0  0  0  0  0  0  0  0  0  0  0  0
   -8.5330   -2.2250  -22.4150 C   0  0  0  0  0  0  0  0  0  0  0  0
   -8.5190   -3.2830  -23.4330 N   0  0  0  0  0  0  0  0  0  0  0  0
   -9.6930   -3.5790  -24.1260 C   0  0  0  0  0  0  0  0  0  0  0  0
   -9.6780   -4.4900  -25.1920 C   0  0  0  0  0  0  0  0  0  0  0  0
  -10.8470   -4.7760  -25.8830 C   0  0  0  0  0  0  0  0  0  0  0  0
  -12.0350   -4.1690  -25.5200 C   0  0  0  0  0  0  0  0  0  0  0  0
  -10.9030   -2.9740  -23.7680 C   0  0  0  0  0  0  0  0  0  0  0  0
  -12.0730   -3.2780  -24.4560 C   0  0  0  0  0  0  0  0  0  0  0  0
  -13.3670   -2.6890  -24.0160 C   0  0  2  0  0  0  0  0  0  0  0  0
  -14.3130   -3.6070  -23.9160 F   0  0  0  0  0  0  0  0  0  0  0  0
  -13.8140   -1.7810  -24.8700 F   0  0  0  0  0  0  0  0  0  0  0  0
  -13.2930   -2.0820  -22.8200 F   0  0  0  0  0  0  0  0  0  0  0  0
  2  1  2  0
  3  2  1  0
  4  2  1  0
  5  4  1  0
  6  5  2  0
  7  6  1  0
  8  7  2  0
  9  8  1  0
 10  9  2  0
 10  5  1  0
 11  3  2  0
 11  6  1  0
 12 11  1  0
 13 12  2  0
 14 12  1  0
 15 14  1  0
 16 15  1  0
 17 14  1  0
 18 17  1  0
 19 18  1  0
 19 16  1  0
 20 19  1  0
 21 20  2  0
 22 21  1  0
 23 22  2  0
 24 20  1  0
 25 24  2  0
 25 23  1  0
 26 25  1  0
 26 27  1  1
 28 26  1  0
 29 26  1  0
M  END
$$$$

     RDKit          3D

 31 35  0  0  0  0  0  0  0  0999 V2000
   -9.1780    0.4370  -21.5740 O   0  0  0  0  0  0  0  0  0  0  0  0
   -8.7770   -0.6530  -21.9480 C   0  0  0  0  0  0  0  0  0  0  0  0
   -7.7420   -1.3530  -21.3960 N   0  0  0  0  0  0  0  0  0  0  0  0
   -6.9270   -0.9190  -20.2940 C   0  0  0  0  0  0  0  0  0  0  0  0
   -5.7640   -0.1150  -20.4920 C   0  0  0  0  0  0  0  0  0  0  0  0
   -5.2650    0.2590  -21.7670 C   0  0  0  0  0  0  0  0  0  0  0  0
   -4.1790    1.0770  -21.8840 C   0  0  0  0  0  0  0  0  0  0  0  0
   -3.5350    1.5700  -20.7560 C   0  0  0  0  0  0  0  0  0  0  0  0
   -3.9620    1.2270  -19.5060 C   0  0  0  0  0  0  0  0  0  0  0  0
   -5.0810    0.3720  -19.3370 C   0  0  0  0  0  0  0  0  0  0  0  0
   -5.5810   -0.0050  -18.0630 C   0  0  0  0  0  0  0  0  0  0  0  0
   -6.6460   -0.7740  -17.8830 N   0  0  0  0  0  0  0  0  0  0  0  0
   -7.2850   -1.2090  -18.9790 C   0  0  0  0  0  0  0  0  0  0  0  0
   -7.5190   -2.6500  -22.0560 C   0  0  0  0  0  0  0  0  0  0  0  0
   -8.8240   -2.8940  -22.8100 C   0  0  0  0  0  0  0  0  0  0  0  0
   -9.3350   -1.4680  -23.1260 C   0  0  1  0  0  0  0  0  0  0  0  0
  -10.8700   -1.3810  -23.2250 C   0  0  0  0  0  0  0  0  0  0  0  0
  -11.6770   -2.1640  -22.3970 C   0  0  0  0  0  0  0  0  0  0  0  0
  -13.0280   -1.8900  -22.3210 C   0  0  0  0  0  0  0  0  0  0  0  0
  -13.9960   -2.7520  -21.1600 Cl  0  0  0  0  0  0  0  0  0  0  0  0
  -13.6150   -0.9060  -23.0850 C   0  0  0  0  0  0  0  0  0  0  0  0
  -12.8300   -0.1830  -23.9630 C   0  0  0  0  0  0  0  0  0  0  0  0
  -11.4560   -0.4060  -24.0480 C   0  0  0  0  0  0  0  0  0  0  0  0
  -10.6420    0.3950  -25.0360 C   0  0  0  0  0  0  0  0  0  0  0  0
   -8.7000   -0.9030  -24.4230 C   0  0  0  0  0  0  0  0  0  0  0  0
   -9.2160    0.4420  -24.6770 N   0  0  1  0  0  0  0  0  0  0  0  0
   -8.4490    1.3320  -25.5410 C   0  0  0  0  0  0  0  0  0  0  0  0
   -7.5780    2.3140  -24.7770 C   0  0  0  0  0  0  0  0  0  0  0  0
   -6.4950    2.6730  -25.2300 O   0  0  0  0  0  0  0  0  0  0  0  0
   -8.0300    2.7230  -23.5940 N   0  0  0  0  0  0  0  0  0  0  0  0
   -7.2190    3.5040  -22.6780 C   0  0  0  0  0  0  0  0  0  0  0  0
  2  1  2  0
  3  2  1  0
  4  3  1  0
  5  4  1  0
  6  5  2  0
  7  6  1  0
  8  7  2  0
  9  8  1  0
 10  5  1  0
 10  9  2  0
 11 10  1  0
 12 11  2  0
 13 12  1  0
 13  4  2  0
 14  3  1  0
 15 14  1  0
 16 15  1  1
 16  2  1  0
 17 16  1  0
 18 17  2  0
 19 18  1  0
 20 19  1  0
 21 19  2  0
 22 21  1  0
 23 22  2  0
 23 17  1  0
 24 23  1  0
 25 16  1  0
 26 25  1  0
 26 24  1  0
 26 27  1  6
 28 27  1  0
 29 28  2  0
 30 28  1  0
 31 30  1  0
M  CHG  1  26   1
M  END
$$$$

     RDKit          3D

 22 24  0  0  0  0  0  0  0  0999 V2000
   -9.1410   -0.1290  -21.4940 O   0  0  0  0  0  0  0  0  0  0  0  0
   -8.7460   -1.0660  -22.1730 C   0  0  0  0  0  0  0  0  0  0  0  0
   -7.6290   -1.9640  -21.6350 C   0  0  0  0  0  0  0  0  0  0  0  0
   -7.0150   -1.3930  -20.4540 N   0  0  0  0  0  0  0  0  0  0  0  0
   -5.9280   -0.5770  -20.3530 C   0  0  0  0  0  0  0  0  0  0  0  0
   -5.0540   -0.0270  -21.2790 C   0  0  0  0  0  0  0  0  0  0  0  0
   -4.0820    0.8460  -20.8100 C   0  0  0  0  0  0  0  0  0  0  0  0
   -3.9860    1.1480  -19.4540 C   0  0  0  0  0  0  0  0  0  0  0  0
   -4.8570    0.5810  -18.5330 C   0  0  0  0  0  0  0  0  0  0  0  0
   -5.8460   -0.2840  -18.9960 C   0  0  0  0  0  0  0  0  0  0  0  0
   -6.8710   -0.9310  -18.3430 N   0  0  0  0  0  0  0  0  0  0  0  0
   -7.5620   -1.5940  -19.2280 N   0  0  0  0  0  0  0  0  0  0  0  0
   -9.1890   -1.2560  -23.4330 N   0  0  0  0  0  0  0  0  0  0  0  0
   -9.1220   -0.1030  -24.3250 C   0  0  0  0  0  0  0  0  0  0  0  0
   -9.8030   -2.4620  -24.0420 C   0  0  1  0  0  0  0  0  0  0  0  0
   -9.0220   -3.7300  -23.7110 C   0  0  0  0  0  0  0  0  0  0  0  0
  -11.2880   -2.4980  -23.7220 C   0  0  0  0  0  0  0  0  0  0  0  0
  -12.2300   -2.3920  -24.7350 C   0  0  0  0  0  0  0  0  0  0  0  0
  -13.5840   -2.4630  -24.4520 C   0  0  0  0  0  0  0  0  0  0  0  0
  -14.0110   -2.6430  -23.1590 C   0  0  0  0  0  0  0  0  0  0  0  0
  -13.0910   -2.7380  -22.1430 C   0  0  0  0  0  0  0  0  0  0  0  0
  -11.7370   -2.6660  -22.4200 C   0  0  0  0  0  0  0  0  0  0  0  0
  2  1  2  0
  3  2  1  0
  4  3  1  0
  5  4  1  0
  6  5  2  0
  7  6  1  0
  8  7  2  0
  9  8  1  0
 10  5  1  0
 10  9  2  0
 11 10  1  0
 12 11  2  0
 12  4  1  0
 13  2  1  0
 14 13  1  0
 15 13  1  0
 15 16  1  1
 17 15  1  0
 18 17  2  0
 19 18  1  0
 20 19  2  0
 21 20  1  0
 22 21  2  0
 22 17  1  0
M  END
$$$$

     RDKit          3D

 22 24  0  0  0  0  0  0  0  0999 V2000
   -5.1890   -5.5310  -20.0260 O   0  0  0  0  0  0  0  0  0  0  0  0
   -5.9450   -4.9170  -20.7640 C   0  0  0  0  0  0  0  0  0  0  0  0
   -5.5790   -4.0320  -21.7220 N   0  0  0  0  0  0  0  0  0  0  0  0
   -7.4620   -5.0220  -20.7270 C   0  0  2  0  0  0  0  0  0  0  0  0
   -7.8240   -6.2670  -21.3040 O   0  0  0  0  0  0  0  0  0  0  0  0
   -7.8400   -3.9610  -21.7390 C   0  0  0  0  0  0  0  0  0  0  0  0
   -6.6770   -3.4570  -22.3160 C   0  0  0  0  0  0  0  0  0  0  0  0
   -9.0790   -3.4800  -22.1470 C   0  0  0  0  0  0  0  0  0  0  0  0
   -9.1550   -2.5210  -23.1440 C   0  0  0  0  0  0  0  0  0  0  0  0
   -8.0010   -2.0240  -23.7300 C   0  0  0  0  0  0  0  0  0  0  0  0
   -6.7440   -2.4740  -23.3210 C   0  0  0  0  0  0  0  0  0  0  0  0
   -5.5470   -1.8740  -23.9680 C   0  0  0  0  0  0  0  0  0  0  0  0
   -4.4260   -2.3000  -23.8560 O   0  0  0  0  0  0  0  0  0  0  0  0
   -5.8710   -0.8250  -24.7300 O   0  0  0  0  0  0  0  0  0  0  0  0
   -4.9230   -0.4730  -25.7810 C   0  0  0  0  0  0  0  0  0  0  0  0
   -5.7240   -0.2080  -27.0230 C   0  0  0  0  0  0  0  0  0  0  0  0
   -5.2670    0.6830  -27.9900 C   0  0  0  0  0  0  0  0  0  0  0  0
   -6.9720   -0.7920  -27.1900 C   0  0  0  0  0  0  0  0  0  0  0  0
   -7.7520   -0.4840  -28.2920 C   0  0  0  0  0  0  0  0  0  0  0  0
   -7.2890    0.4190  -29.2340 C   0  0  0  0  0  0  0  0  0  0  0  0
   -6.0450    1.0230  -29.0920 C   0  0  0  0  0  0  0  0  0  0  0  0
   -5.5800    2.0740  -30.0700 C   0  0  0  0  0  0  0  0  0  0  0  0
  2  1  2  0
  3  2  1  0
  4  2  1  0
  4  5  1  6
  6  4  1  0
  7  6  2  0
  7  3  1  0
  8  6  1  0
  9  8  2  0
 10  9  1  0
 11 10  2  0
 11  7  1  0
 12 11  1  0
 13 12  2  0
 14 12  1  0
 15 14  1  0
 16 15  1  0
 17 16  2  0
 18 16  1  0
 19 18  2  0
 20 19  1  0
 21 20  2  0
 21 17  1  0
 22 21  1  0
M  END
$$$$

     RDKit          3D

 27 30  0  0  0  0  0  0  0  0999 V2000
  -13.8180   -2.7710  -21.6880 Cl  0  0  0  0  0  0  0  0  0  0  0  0
  -12.5310   -2.0330  -22.6060 C   0  0  0  0  0  0  0  0  0  0  0  0
  -11.2250   -2.3860  -22.3290 C   0  0  0  0  0  0  0  0  0  0  0  0
  -12.8370   -1.0840  -23.5580 C   0  0  0  0  0  0  0  0  0  0  0  0
  -11.8080   -0.4810  -24.2590 C   0  0  0  0  0  0  0  0  0  0  0  0
  -10.4740   -0.8060  -24.0020 C   0  0  0  0  0  0  0  0  0  0  0  0
   -9.3870   -0.1630  -24.8410 C   0  0  0  0  0  0  0  0  0  0  0  0
   -8.0350   -0.4450  -24.3340 N   0  0  0  0  0  0  0  0  0  0  0  0
   -6.9160    0.1990  -25.0310 C   0  0  0  0  0  0  0  0  0  0  0  0
   -5.8520   -0.4300  -25.1600 O   0  0  0  0  0  0  0  0  0  0  0  0
   -7.0740    1.4440  -25.4960 N   0  0  0  0  0  0  0  0  0  0  0  0
  -10.1820   -1.7600  -23.0130 C   0  0  0  0  0  0  0  0  0  0  0  0
   -8.7410   -2.1030  -22.6990 C   0  0  1  0  0  0  0  0  0  0  0  0
   -7.8670   -1.8400  -23.9240 C   0  0  0  0  0  0  0  0  0  0  0  0
   -8.2800   -1.2170  -21.5410 C   0  0  0  0  0  0  0  0  0  0  0  0
   -8.8570   -0.1630  -21.2480 O   0  0  0  0  0  0  0  0  0  0  0  0
   -7.1730   -1.6590  -20.8970 N   0  0  0  0  0  0  0  0  0  0  0  0
   -6.4580   -1.0130  -19.8720 C   0  0  0  0  0  0  0  0  0  0  0  0
   -5.3770   -0.1500  -20.2340 C   0  0  0  0  0  0  0  0  0  0  0  0
   -4.9360    0.0470  -21.5690 C   0  0  0  0  0  0  0  0  0  0  0  0
   -3.8970    0.8900  -21.8480 C   0  0  0  0  0  0  0  0  0  0  0  0
   -3.2430    1.5720  -20.8280 C   0  0  0  0  0  0  0  0  0  0  0  0
   -3.6300    1.4160  -19.5280 C   0  0  0  0  0  0  0  0  0  0  0  0
   -4.7070    0.5550  -19.1940 C   0  0  0  0  0  0  0  0  0  0  0  0
   -5.1570    0.3560  -17.8660 C   0  0  0  0  0  0  0  0  0  0  0  0
   -6.1550   -0.4490  -17.5290 N   0  0  0  0  0  0  0  0  0  0  0  0
   -6.7780   -1.1090  -18.5150 C   0  0  0  0  0  0  0  0  0  0  0  0
  2  1  1  0
  3  2  2  0
  4  2  1  0
  5  4  2  0
  6  5  1  0
  7  6  1  0
  8  7  1  0
  9  8  1  0
 10  9  2  0
 11  9  1  0
 12  3  1  0
 12  6  2  0
 13 12  1  0
 14 13  1  0
 14  8  1  0
 13 15  1  1
 16 15  2  0
 17 15  1  0
 18 17  1  0
 19 18  1  0
 20 19  2  0
 21 20  1  0
 22 21  2  0
 23 22  1  0
 24 23  2  0
 24 19  1  0
 25 24  1  0
 26 25  2  0
 27 26  1  0
 27 18  2  0
M  END
$$$$

     RDKit          3D

 26 30  0  0  0  0  0  0  0  0999 V2000
   -9.0850    0.3240  -21.3900 O   0  0  0  0  0  0  0  0  0  0  0  0
   -8.5840   -0.6850  -21.8530 C   0  0  0  0  0  0  0  0  0  0  0  0
   -9.0780   -1.4520  -23.0820 C   0  0  1  0  0  0  0  0  0  0  0  0
  -10.5750   -1.5290  -23.1560 C   0  0  0  0  0  0  0  0  0  0  0  0
  -11.4860   -2.2590  -22.4000 C   0  0  0  0  0  0  0  0  0  0  0  0
  -12.8330   -1.9820  -22.5530 C   0  0  0  0  0  0  0  0  0  0  0  0
  -13.9860   -2.8240  -21.5490 Cl  0  0  0  0  0  0  0  0  0  0  0  0
  -13.2880   -1.0310  -23.4550 C   0  0  0  0  0  0  0  0  0  0  0  0
  -12.3740   -0.3350  -24.2310 C   0  0  0  0  0  0  0  0  0  0  0  0
  -11.0250   -0.5950  -24.0740 C   0  0  0  0  0  0  0  0  0  0  0  0
  -10.0040   -0.0250  -24.8090 O   0  0  0  0  0  0  0  0  0  0  0  0
   -8.7680   -0.6750  -24.3830 C   0  0  0  0  0  0  0  0  0  0  0  0
   -8.4330   -2.8420  -22.8960 C   0  0  0  0  0  0  0  0  0  0  0  0
   -7.1780   -2.5760  -22.0720 C   0  0  0  0  0  0  0  0  0  0  0  0
   -7.4860   -1.3260  -21.3600 N   0  0  0  0  0  0  0  0  0  0  0  0
   -6.6950   -0.8780  -20.2520 C   0  0  0  0  0  0  0  0  0  0  0  0
   -7.0440   -1.1680  -18.9370 C   0  0  0  0  0  0  0  0  0  0  0  0
   -6.4140   -0.6950  -17.8520 N   0  0  0  0  0  0  0  0  0  0  0  0
   -5.3690    0.0930  -18.0500 C   0  0  0  0  0  0  0  0  0  0  0  0
   -5.5740   -0.0260  -20.4690 C   0  0  0  0  0  0  0  0  0  0  0  0
   -5.1400    0.3840  -21.7550 C   0  0  0  0  0  0  0  0  0  0  0  0
   -4.0890    1.2340  -21.8510 C   0  0  0  0  0  0  0  0  0  0  0  0
   -3.7240    1.6630  -23.0860 F   0  0  0  0  0  0  0  0  0  0  0  0
   -4.8890    0.4740  -19.3270 C   0  0  0  0  0  0  0  0  0  0  0  0
   -3.7900    1.3470  -19.5130 C   0  0  0  0  0  0  0  0  0  0  0  0
   -3.4000    1.7190  -20.7640 C   0  0  0  0  0  0  0  0  0  0  0  0
  2  1  2  0
  3  2  1  0
  4  3  1  0
  5  4  2  0
  6  5  1  0
  7  6  1  0
  8  6  2  0
  9  8  1  0
 10  9  2  0
 10  4  1  0
 11 10  1  0
 12 11  1  0
  3 12  1  6
 13  3  1  0
 14 13  1  0
 15 14  1  0
 15  2  1  0
 16 15  1  0
 17 16  2  0
 18 17  1  0
 19 18  2  0
 20 16  1  0
 21 20  2  0
 22 21  1  0
 23 22  1  0
 24 20  1  0
 24 19  1  0
 25 24  2  0
 26 22  2  0
 26 25  1  0
M  END
$$$$

     RDKit          3D

 15 16  0  0  0  0  0  0  0  0999 V2000
   -5.5400   -6.3150  -19.8870 O   0  0  0  0  0  0  0  0  0  0  0  0
   -6.2550   -5.5280  -20.4900 C   0  0  0  0  0  0  0  0  0  0  0  0
   -6.9100   -4.2990  -19.8830 C   0  0  1  0  0  0  0  0  0  0  0  0
   -5.9550   -3.4970  -19.2190 O   0  0  0  0  0  0  0  0  0  0  0  0
   -7.4870   -3.6320  -21.1140 C   0  0  0  0  0  0  0  0  0  0  0  0
   -8.1510   -2.4240  -21.3090 C   0  0  0  0  0  0  0  0  0  0  0  0
   -6.5300   -5.5630  -21.8140 N   0  0  0  0  0  0  0  0  0  0  0  0
   -7.2520   -4.4530  -22.2160 C   0  0  0  0  0  0  0  0  0  0  0  0
   -7.6750   -4.0970  -23.4930 C   0  0  0  0  0  0  0  0  0  0  0  0
   -8.3310   -2.8940  -23.6760 C   0  0  0  0  0  0  0  0  0  0  0  0
   -8.5510   -2.0630  -22.5860 C   0  0  0  0  0  0  0  0  0  0  0  0
   -9.3130   -0.4920  -22.8360 S   0  0  1  0  0  0  0  0  0  0  0  0
  -10.5480   -0.7260  -23.5290 O   0  0  0  0  0  0  0  0  0  0  0  0
   -9.3400    0.1750  -21.5670 O   0  0  0  0  0  0  0  0  0  0  0  0
   -8.3870    0.3820  -23.8090 N   0  0  0  0  0  0  0  0  0  0  0  0
  2  1  2  0
  3  2  1  0
  3  4  1  6
  5  3  1  0
  6  5  2  0
  7  2  1  0
  8  7  1  0
  8  5  1  0
  9  8  2  0
 10  9  1  0
 11 10  2  0
 11  6  1  0
 12 11  1  0
 13 12  2  0
 14 12  2  0
 12 15  1  6
M  END
$$$$

     RDKit          3D

 26 29  0  0  0  0  0  0  0  0999 V2000
   -9.2590    0.2780  -21.3930 O   0  0  0  0  0  0  0  0  0  0  0  0
   -8.7690   -0.7510  -21.8520 C   0  0  0  0  0  0  0  0  0  0  0  0
   -7.6320   -1.3060  -21.3700 N   0  0  0  0  0  0  0  0  0  0  0  0
   -6.8610   -0.7890  -20.2980 C   0  0  0  0  0  0  0  0  0  0  0  0
   -5.7380    0.0360  -20.5180 C   0  0  0  0  0  0  0  0  0  0  0  0
   -5.4000    0.5080  -21.9140 C   0  0  0  0  0  0  0  0  0  0  0  0
   -4.0070    1.1250  -22.0410 C   0  0  0  0  0  0  0  0  0  0  0  0
   -3.6850    2.0510  -20.8840 C   0  0  0  0  0  0  0  0  0  0  0  0
   -3.7590    1.3100  -19.5630 C   0  0  0  0  0  0  0  0  0  0  0  0
   -5.0110    0.4830  -19.4020 C   0  0  0  0  0  0  0  0  0  0  0  0
   -5.4660    0.1200  -18.1470 C   0  0  0  0  0  0  0  0  0  0  0  0
   -6.5450   -0.6350  -17.9180 N   0  0  0  0  0  0  0  0  0  0  0  0
   -7.2220   -1.0840  -18.9840 C   0  0  0  0  0  0  0  0  0  0  0  0
   -9.3950   -1.4930  -23.0350 C   0  0  1  0  0  0  0  0  0  0  0  0
  -10.9060   -1.3740  -23.1320 C   0  0  0  0  0  0  0  0  0  0  0  0
  -11.7110   -2.1490  -22.2940 C   0  0  0  0  0  0  0  0  0  0  0  0
  -13.0720   -1.9110  -22.2280 C   0  0  0  0  0  0  0  0  0  0  0  0
  -14.0410   -2.8550  -21.1330 Cl  0  0  0  0  0  0  0  0  0  0  0  0
   -8.7170   -1.0630  -24.3480 C   0  0  0  0  0  0  0  0  0  0  0  0
   -9.1080    0.3310  -24.6150 N   0  0  0  0  0  0  0  0  0  0  0  0
  -10.6380    0.4530  -25.1650 S   0  0  1  0  0  0  0  0  0  0  0  0
  -11.0120    1.8320  -25.1290 O   0  0  0  0  0  0  0  0  0  0  0  0
  -10.7160   -0.2530  -26.4080 O   0  0  0  0  0  0  0  0  0  0  0  0
  -11.5410   -0.4260  -23.9430 C   0  0  0  0  0  0  0  0  0  0  0  0
  -12.9080   -0.1920  -23.8640 C   0  0  0  0  0  0  0  0  0  0  0  0
  -13.6760   -0.9310  -22.9840 C   0  0  0  0  0  0  0  0  0  0  0  0
  2  1  2  0
  3  2  1  0
  4  3  1  0
  5  4  1  0
  6  5  1  0
  7  6  1  0
  8  7  1  0
  9  8  1  0
 10  5  2  0
 10  9  1  0
 11 10  1  0
 12 11  2  0
 13 12  1  0
 13  4  2  0
 14  2  1  1
 15 14  1  0
 16 15  2  0
 17 16  1  0
 18 17  1  0
 19 14  1  0
 20 19  1  0
 21 20  1  1
 22 21  2  0
 23 21  2  0
 24 15  1  0
 24 21  1  0
 25 24  2  0
 26 25  1  0
 26 17  2  0
M  END
$$$$

     RDKit          3D

 27 30  0  0  0  0  0  0  0  0999 V2000
   -9.5080    0.0910  -21.2830 O   0  0  0  0  0  0  0  0  0  0  0  0
   -8.9610   -0.8260  -21.8780 C   0  0  0  0  0  0  0  0  0  0  0  0
   -9.6630   -1.5270  -23.0710 C   0  0  1  0  0  0  0  0  0  0  0  0
  -11.1730   -1.2620  -23.1070 C   0  0  0  0  0  0  0  0  0  0  0  0
  -11.9800   -1.9850  -22.2270 C   0  0  0  0  0  0  0  0  0  0  0  0
  -13.3150   -1.6540  -22.0860 C   0  0  0  0  0  0  0  0  0  0  0  0
  -14.2640   -2.4850  -20.8810 Cl  0  0  0  0  0  0  0  0  0  0  0  0
  -13.8990   -0.6440  -22.8300 C   0  0  0  0  0  0  0  0  0  0  0  0
  -13.1280    0.0590  -23.7390 C   0  0  0  0  0  0  0  0  0  0  0  0
  -11.7790   -0.2480  -23.8720 C   0  0  0  0  0  0  0  0  0  0  0  0
  -10.8470    0.6580  -25.0500 S   0  0  2  0  0  0  0  0  0  0  0  0
  -11.1760    2.0470  -24.9530 O   0  0  0  0  0  0  0  0  0  0  0  0
  -10.9480    0.0110  -26.3260 O   0  0  0  0  0  0  0  0  0  0  0  0
   -9.3240    0.4620  -24.5110 N   0  0  0  0  0  0  0  0  0  0  0  0
   -8.9530   -0.9480  -24.3210 C   0  0  0  0  0  0  0  0  0  0  0  0
   -9.4310   -3.0520  -23.0360 C   0  0  0  0  0  0  0  0  0  0  0  0
   -7.7350   -1.2870  -21.5360 N   0  0  0  0  0  0  0  0  0  0  0  0
   -6.9450   -0.8210  -20.4520 C   0  0  0  0  0  0  0  0  0  0  0  0
   -5.7850   -0.0390  -20.6040 C   0  0  0  0  0  0  0  0  0  0  0  0
   -5.3660    0.4380  -21.9790 C   0  0  0  0  0  0  0  0  0  0  0  0
   -3.9890    1.0890  -22.0180 C   0  0  0  0  0  0  0  0  0  0  0  0
   -3.7350    1.9770  -20.8150 C   0  0  0  0  0  0  0  0  0  0  0  0
   -3.8260    1.1740  -19.5360 C   0  0  0  0  0  0  0  0  0  0  0  0
   -5.0840    0.3440  -19.4490 C   0  0  0  0  0  0  0  0  0  0  0  0
   -5.5880   -0.0510  -18.2250 C   0  0  0  0  0  0  0  0  0  0  0  0
   -6.7030   -0.7690  -18.0600 N   0  0  0  0  0  0  0  0  0  0  0  0
   -7.3590   -1.1520  -19.1620 C   0  0  0  0  0  0  0  0  0  0  0  0
  2  1  2  0
  3  2  1  0
  4  3  1  0
  5  4  2  0
  6  5  1  0
  7  6  1  0
  8  6  2  0
  9  8  1  0
 10  9  2  0
 10  4  1  0
 11 10  1  0
 12 11  2  0
 13 11  2  0
 11 14  1  1
 15 14  1  0
 15  3  1  0
  3 16  1  1
 17  2  1  0
 18 17  1  0
 19 18  1  0
 20 19  1  0
 21 20  1  0
 22 21  1  0
 23 22  1  0
 24 19  2  0
 24 23  1  0
 25 24  1  0
 26 25  2  0
 27 26  1  0
 27 18  2  0
M  END
$$$$

     RDKit          3D

 25 26  0  0  0  0  0  0  0  0999 V2000
   -5.7990    0.3430  -24.8530 N   0  0  0  0  0  0  0  0  0  0  0  0
   -5.6640   -0.2780  -25.7950 C   0  0  0  0  0  0  0  0  0  0  0  0
   -5.5500   -1.1040  -27.0020 C   0  0  2  0  0  0  0  0  0  0  0  0
   -4.2350   -1.8860  -26.9190 C   0  0  0  0  0  0  0  0  0  0  0  0
   -5.5510   -0.1740  -28.2200 C   0  0  0  0  0  0  0  0  0  0  0  0
   -6.7690   -2.0440  -27.0600 C   0  0  0  0  0  0  0  0  0  0  0  0
   -8.0540   -1.3800  -26.9670 N   0  0  0  0  0  0  0  0  0  0  0  0
   -8.8740   -1.3530  -25.8490 C   0  0  0  0  0  0  0  0  0  0  0  0
  -10.1090   -0.7160  -25.9000 C   0  0  0  0  0  0  0  0  0  0  0  0
  -10.9250   -0.7570  -24.7860 C   0  0  0  0  0  0  0  0  0  0  0  0
  -12.4790    0.0240  -24.8480 Cl  0  0  0  0  0  0  0  0  0  0  0  0
  -10.5370   -1.3870  -23.6200 C   0  0  0  0  0  0  0  0  0  0  0  0
   -8.4660   -1.9750  -24.6720 C   0  0  0  0  0  0  0  0  0  0  0  0
   -9.2850   -1.9860  -23.5510 C   0  0  0  0  0  0  0  0  0  0  0  0
   -8.7870   -2.5810  -22.2540 C   0  0  0  0  0  0  0  0  0  0  0  0
   -8.0710   -1.5280  -21.4330 C   0  0  0  0  0  0  0  0  0  0  0  0
   -8.5920   -0.4500  -21.1640 O   0  0  0  0  0  0  0  0  0  0  0  0
   -6.8410   -1.8800  -21.0030 N   0  0  0  0  0  0  0  0  0  0  0  0
   -6.1950   -1.1190  -20.0040 C   0  0  0  0  0  0  0  0  0  0  0  0
   -5.1720   -0.2280  -20.3450 C   0  0  0  0  0  0  0  0  0  0  0  0
   -4.7620    0.0040  -21.7760 C   0  0  0  0  0  0  0  0  0  0  0  0
   -6.6290   -1.1750  -18.6810 C   0  0  0  0  0  0  0  0  0  0  0  0
   -6.1280   -0.3980  -17.7130 N   0  0  0  0  0  0  0  0  0  0  0  0
   -5.1110    0.4100  -18.0380 C   0  0  0  0  0  0  0  0  0  0  0  0
   -4.6060    0.5190  -19.3180 C   0  0  0  0  0  0  0  0  0  0  0  0
  2  1  3  0
  3  2  1  0
  3  4  1  1
  5  3  1  0
  6  3  1  0
  7  6  1  0
  8  7  1  0
  9  8  2  0
 10  9  1  0
 11 10  1  0
 12 10  2  0
 13  8  1  0
 14 13  2  0
 14 12  1  0
 15 14  1  0
 16 15  1  0
 17 16  2  0
 18 16  1  0
 19 18  1  0
 20 19  2  0
 21 20  1  0
 22 19  1  0
 23 22  2  0
 24 23  1  0
 25 24  2  0
 25 20  1  0
M  END
$$$$

     RDKit          3D

 20 20  0  0  0  0  0  0  0  0999 V2000
   -7.6960    3.7360  -22.9940 C   0  0  0  0  0  0  0  0  0  0  0  0
   -6.7960   -1.3840  -20.4670 C   0  0  0  0  0  0  0  0  0  0  0  0
   -8.8760   -0.8180  -22.7020 C   0  0  0  0  0  0  0  0  0  0  0  0
   -9.7490   -3.0230  -22.2260 C   0  0  0  0  0  0  0  0  0  0  0  0
  -11.1320   -2.8640  -22.6800 C   0  0  0  0  0  0  0  0  0  0  0  0
  -12.2680   -2.9440  -23.0890 C   0  0  0  0  0  0  0  0  0  0  0  0
   -7.2080    2.3670  -23.3380 C   0  0  0  0  0  0  0  0  0  0  0  0
   -7.7050   -0.0230  -23.2640 C   0  0  2  0  0  0  0  0  0  0  0  0
   -6.3580   -0.6200  -22.8260 C   0  0  0  0  0  0  0  0  0  0  0  0
   -6.1310   -0.5350  -21.3370 C   0  0  0  0  0  0  0  0  0  0  0  0
   -5.2790    0.4160  -20.7940 C   0  0  0  0  0  0  0  0  0  0  0  0
   -5.0910    0.5170  -19.4260 C   0  0  0  0  0  0  0  0  0  0  0  0
   -5.7660   -0.3470  -18.5800 C   0  0  0  0  0  0  0  0  0  0  0  0
   -6.6230   -1.2950  -19.0990 C   0  0  0  0  0  0  0  0  0  0  0  0
   -7.8780    1.3480  -22.8080 N   0  0  0  0  0  0  0  0  0  0  0  0
   -8.8760   -2.1250  -22.9500 N   0  0  0  0  0  0  0  0  0  0  0  0
   -6.2210    2.1790  -24.0410 O   0  0  0  0  0  0  0  0  0  0  0  0
   -5.6240   -0.2610  -17.2370 O   0  0  0  0  0  0  0  0  0  0  0  0
   -9.7440   -0.2640  -22.0340 O   0  0  0  0  0  0  0  0  0  0  0  0
  -13.9470   -3.3190  -23.9820 Br  0  0  0  0  0  0  0  0  0  0  0  0
  5  4  1  0
  6  5  3  0
  7  1  1  0
  8  3  1  0
  8  9  1  1
 10  9  1  0
 10  2  2  0
 11 10  1  0
 12 11  2  0
 13 12  1  0
 14 13  2  0
 14  2  1  0
 15  8  1  0
 15  7  1  0
 16  4  1  0
 16  3  1  0
 17  7  2  0
 18 13  1  0
 19  3  2  0
 20  6  1  0
M  END
$$$$

     RDKit          3D

 20 21  0  0  0  0  0  0  0  0999 V2000
   -8.3190   -3.3220  -22.6750 F   0  0  0  0  0  0  0  0  0  0  0  0
  -10.4680   -0.9450  -24.2020 C   0  0  0  0  0  0  0  0  0  0  0  0
   -6.1850   -0.3870  -17.7360 N   0  0  0  0  0  0  0  0  0  0  0  0
  -12.3230   -2.2030  -22.6150 C   0  0  0  0  0  0  0  0  0  0  0  0
   -5.1680   -0.1500  -20.3420 C   0  0  0  0  0  0  0  0  0  0  0  0
  -12.7600   -1.3100  -23.5720 C   0  0  0  0  0  0  0  0  0  0  0  0
   -4.6370    0.0320  -21.7410 C   0  0  0  0  0  0  0  0  0  0  0  0
  -10.0380   -1.8180  -23.2090 C   0  0  0  0  0  0  0  0  0  0  0  0
   -4.5850    0.5180  -19.2700 C   0  0  0  0  0  0  0  0  0  0  0  0
   -8.1000   -1.1760  -21.7070 C   0  0  0  0  0  0  0  0  0  0  0  0
   -6.9620   -1.6080  -21.1270 N   0  0  0  0  0  0  0  0  0  0  0  0
   -8.7360   -0.1940  -21.3520 O   0  0  0  0  0  0  0  0  0  0  0  0
   -6.2850   -0.9570  -20.0690 C   0  0  0  0  0  0  0  0  0  0  0  0
   -8.5720   -2.0070  -22.9210 C   0  0  1  0  0  0  0  0  0  0  0  0
   -6.7460   -1.0440  -18.7570 C   0  0  0  0  0  0  0  0  0  0  0  0
  -11.8200   -0.6920  -24.3830 C   0  0  0  0  0  0  0  0  0  0  0  0
  -10.9840   -2.4730  -22.4280 C   0  0  0  0  0  0  0  0  0  0  0  0
   -5.1170    0.3740  -18.0050 C   0  0  0  0  0  0  0  0  0  0  0  0
   -7.8040   -1.6800  -24.0000 F   0  0  0  0  0  0  0  0  0  0  0  0
  -13.4900   -3.0310  -21.6250 Cl  0  0  0  0  0  0  0  0  0  0  0  0
  6  4  1  0
  7  5  1  0
  8  2  2  0
  9  5  1  0
 11 10  1  0
 12 10  2  0
 13 11  1  0
 13  5  2  0
 14  8  1  0
 14  1  1  1
 14 10  1  0
 15 13  1  0
 15  3  2  0
 16  6  2  0
 16  2  1  0
 17  4  2  0
 17  8  1  0
 18  3  1  0
 18  9  2  0
 19 14  1  0
 20  4  1  0
M  END
$$$$

     RDKit          3D

 27 29  0  0  0  0  0  0  0  0999 V2000
   -6.3180   -0.0050  -17.1570 O   0  0  0  0  0  0  0  0  0  0  0  0
   -5.6770   -0.2390  -18.1840 C   0  0  0  0  0  0  0  0  0  0  0  0
   -6.0120   -1.2670  -19.1030 C   0  0  0  0  0  0  0  0  0  0  0  0
   -4.6350    0.5730  -18.5490 N   0  0  0  0  0  0  0  0  0  0  0  0
   -3.9710    0.4990  -19.7670 C   0  0  0  0  0  0  0  0  0  0  0  0
   -4.3710   -0.4720  -20.7110 C   0  0  0  0  0  0  0  0  0  0  0  0
   -3.7740   -0.4390  -21.9880 C   0  0  0  0  0  0  0  0  0  0  0  0
   -4.2650   -1.3430  -22.8900 O   0  0  0  0  0  0  0  0  0  0  0  0
   -3.6740   -1.3830  -24.1880 C   0  0  0  0  0  0  0  0  0  0  0  0
   -2.7780    0.4860  -22.2770 C   0  0  0  0  0  0  0  0  0  0  0  0
   -2.3680    1.3900  -21.3140 C   0  0  0  0  0  0  0  0  0  0  0  0
   -2.9630    1.4090  -20.0650 C   0  0  0  0  0  0  0  0  0  0  0  0
   -5.4180   -1.4250  -20.3110 C   0  0  0  0  0  0  0  0  0  0  0  0
   -5.7930   -2.6240  -21.1160 C   0  0  0  0  0  0  0  0  0  0  0  0
   -5.0490   -3.5980  -21.1930 O   0  0  0  0  0  0  0  0  0  0  0  0
   -6.9590   -2.5590  -21.7630 N   0  0  0  0  0  0  0  0  0  0  0  0
   -7.3540   -3.5420  -22.7590 C   0  0  0  0  0  0  0  0  0  0  0  0
   -8.8380   -3.5700  -22.9640 C   0  0  0  0  0  0  0  0  0  0  0  0
   -9.2970   -2.2110  -23.0310 O   0  0  0  0  0  0  0  0  0  0  0  0
  -10.6480   -1.9750  -23.1080 C   0  0  0  0  0  0  0  0  0  0  0  0
  -11.0160   -0.7440  -23.6880 C   0  0  0  0  0  0  0  0  0  0  0  0
   -9.9720    0.0420  -24.0990 O   0  0  0  0  0  0  0  0  0  0  0  0
  -10.2480    1.4050  -24.4280 C   0  0  0  0  0  0  0  0  0  0  0  0
  -11.6250   -2.8200  -22.6020 C   0  0  0  0  0  0  0  0  0  0  0  0
  -12.9540   -2.4310  -22.6380 C   0  0  0  0  0  0  0  0  0  0  0  0
  -13.3170   -1.2250  -23.2050 C   0  0  0  0  0  0  0  0  0  0  0  0
  -12.3560   -0.3830  -23.7460 C   0  0  0  0  0  0  0  0  0  0  0  0
  2  1  2  0
  3  2  1  0
  4  2  1  0
  5  4  1  0
  6  5  2  0
  7  6  1  0
  8  7  1  0
  9  8  1  0
 10  7  2  0
 11 10  1  0
 12 11  2  0
 12  5  1  0
 13  3  2  0
 13  6  1  0
 14 13  1  0
 15 14  2  0
 16 14  1  0
 17 16  1  0
 18 17  1  0
 19 18  1  0
 20 19  1  0
 21 20  2  0
 22 21  1  0
 23 22  1  0
 24 20  1  0
 25 24  2  0
 26 25  1  0
 27 26  2  0
 27 21  1  0
M  END
$$$$

     RDKit          3D

 10 10  0  0  0  0  0  0  0  0999 V2000
  -21.9950  -21.8580  -23.5730 N   0  0  0  0  0  0  0  0  0  0  0  0
  -23.0030  -19.6800  -24.3230 C   0  0  0  0  0  0  0  0  0  0  0  0
  -22.1210  -20.3830  -23.2810 C   0  0  0  0  0  0  0  0  0  0  0  0
  -20.7250  -22.1640  -24.3090 C   0  0  0  0  0  0  0  0  0  0  0  0
  -20.2690  -23.5620  -24.0960 C   0  0  0  0  0  0  0  0  0  0  0  0
  -20.2560  -24.6670  -24.9550 C   0  0  0  0  0  0  0  0  0  0  0  0
  -19.3640  -27.0660  -24.6280 C   0  0  0  0  0  0  0  0  0  0  0  0
  -19.6300  -25.6760  -24.2150 N   0  0  0  0  0  0  0  0  0  0  0  0
  -19.2960  -25.1810  -22.9840 N   0  0  0  0  0  0  0  0  0  0  0  0
  -19.6700  -23.9610  -22.9060 N   0  0  0  0  0  0  0  0  0  0  0  0
  3  1  1  0
  3  2  1  0
  4  1  1  0
  5  4  1  0
  6  5  2  0
  8  7  1  0
  8  6  1  0
  9  8  1  0
 10  9  2  0
 10  5  1  0
M  CHG  1   1   1
M  END
$$$$

     RDKit          3D

  7  7  0  0  0  0  0  0  0  0999 V2000
  -24.3630   -9.1270   -5.7320 C   0  0  2  0  0  0  0  0  0  0  0  0
  -24.5480   -8.6150   -4.4580 O   0  0  0  0  0  0  0  0  0  0  0  0
  -23.2620  -10.2130   -5.7090 C   0  0  0  0  0  0  0  0  0  0  0  0
  -23.4940   -8.1790   -6.5870 C   0  0  0  0  0  0  0  0  0  0  0  0
  -21.0820   -8.8500   -5.9460 O   0  0  0  0  0  0  0  0  0  0  0  0
  -22.0100   -9.7310   -7.9680 O   0  0  0  0  0  0  0  0  0  0  0  0
  -22.2110   -9.2750   -6.6660 S   0  0  1  0  0  0  0  0  0  0  0  0
  1  2  1  1
  3  1  1  0
  4  1  1  0
  7  6  2  0
  7  4  1  6
  7  3  1  0
  7  5  2  0
M  END
$$$$

     RDKit          3D

 25 28  0  0  0  0  0  0  0  0999 V2000
  -13.5560   -3.0210  -21.2750 Cl  0  0  0  0  0  0  0  0  0  0  0  0
  -12.4670   -2.1550  -22.3230 C   0  0  0  0  0  0  0  0  0  0  0  0
  -12.9740   -1.2040  -23.1830 C   0  0  0  0  0  0  0  0  0  0  0  0
  -12.1130   -0.5390  -24.0370 C   0  0  0  0  0  0  0  0  0  0  0  0
  -11.1190   -2.4480  -22.2780 C   0  0  0  0  0  0  0  0  0  0  0  0
  -10.2390   -1.7720  -23.1200 C   0  0  0  0  0  0  0  0  0  0  0  0
  -10.7580   -0.8300  -24.0000 C   0  0  0  0  0  0  0  0  0  0  0  0
   -9.9590   -0.1560  -24.8850 O   0  0  0  0  0  0  0  0  0  0  0  0
   -8.9390   -0.9880  -25.4500 C   0  0  0  0  0  0  0  0  0  0  0  0
   -7.9960   -1.5550  -24.4110 C   0  0  0  0  0  0  0  0  0  0  0  0
   -8.7410   -1.9970  -23.0980 C   0  0  1  0  0  0  0  0  0  0  0  0
   -8.2030   -1.2050  -21.9040 C   0  0  0  0  0  0  0  0  0  0  0  0
   -8.8840   -0.3620  -21.3240 O   0  0  0  0  0  0  0  0  0  0  0  0
   -6.8890   -1.4090  -21.6450 N   0  0  0  0  0  0  0  0  0  0  0  0
   -6.1100   -0.9860  -20.5520 C   0  0  0  0  0  0  0  0  0  0  0  0
   -6.6430   -0.7350  -19.3020 C   0  0  0  0  0  0  0  0  0  0  0  0
   -4.8070   -0.4710  -20.8550 C   0  0  0  0  0  0  0  0  0  0  0  0
   -4.1450    0.3130  -19.8670 C   0  0  0  0  0  0  0  0  0  0  0  0
   -4.7690    0.5120  -18.6310 C   0  0  0  0  0  0  0  0  0  0  0  0
   -5.9860   -0.0050  -18.3710 N   0  0  0  0  0  0  0  0  0  0  0  0
   -6.5620    0.2460  -17.2260 O   0  0  0  0  0  0  0  0  0  0  0  0
   -2.9140    0.9310  -20.1880 C   0  0  0  0  0  0  0  0  0  0  0  0
   -2.3610    0.7740  -21.4250 C   0  0  0  0  0  0  0  0  0  0  0  0
   -2.9920    0.0030  -22.3890 C   0  0  0  0  0  0  0  0  0  0  0  0
   -4.1820   -0.6110  -22.1190 C   0  0  0  0  0  0  0  0  0  0  0  0
  2  1  1  0
  3  2  2  0
  4  3  1  0
  5  2  1  0
  6  5  2  0
  7  4  2  0
  7  6  1  0
  8  7  1  0
  9  8  1  0
 10  9  1  0
 11 10  1  0
 11  6  1  0
 11 12  1  1
 13 12  2  0
 14 12  1  0
 15 14  1  0
 16 15  2  0
 17 15  1  0
 18 17  2  0
 19 18  1  0
 20 16  1  0
 20 19  2  0
 21 20  1  0
 22 18  1  0
 23 22  2  0
 24 23  1  0
 25 24  2  0
 25 17  1  0
M  CHG  2  20   1  21  -1
M  END
$$$$

     RDKit          3D

 27 28  0  0  0  0  0  0  0  0999 V2000
   -5.1810   -3.2760  -21.1790 O   0  0  0  0  0  0  0  0  0  0  0  0
   -6.2930   -3.4620  -21.6460 C   0  0  0  0  0  0  0  0  0  0  0  0
   -6.8150   -4.8660  -21.8060 C   0  0  0  0  0  0  0  0  0  0  0  0
   -6.7070   -5.6230  -20.5180 C   0  0  0  0  0  0  0  0  0  0  0  0
   -7.1050   -2.4210  -22.0000 N   0  0  0  0  0  0  0  0  0  0  0  0
   -8.3080   -2.6270  -22.7600 C   0  0  0  0  0  0  0  0  0  0  0  0
   -9.5400   -2.7530  -22.1200 C   0  0  0  0  0  0  0  0  0  0  0  0
  -10.6970   -2.9220  -22.8620 C   0  0  0  0  0  0  0  0  0  0  0  0
  -10.6610   -2.9730  -24.2540 C   0  0  0  0  0  0  0  0  0  0  0  0
  -11.9450   -3.0740  -25.0900 C   0  0  2  0  0  0  0  0  0  0  0  0
  -13.1850   -3.3410  -24.2320 C   0  0  0  0  0  0  0  0  0  0  0  0
  -11.8400   -4.2100  -26.1210 C   0  0  0  0  0  0  0  0  0  0  0  0
  -12.1710   -1.7590  -25.8400 C   0  0  0  0  0  0  0  0  0  0  0  0
   -9.4220   -2.8700  -24.8830 C   0  0  0  0  0  0  0  0  0  0  0  0
   -8.2590   -2.6970  -24.1510 C   0  0  0  0  0  0  0  0  0  0  0  0
   -6.7420   -1.0060  -21.7000 C   0  0  1  0  0  0  0  0  0  0  0  0
   -7.8360    0.0140  -22.0550 C   0  0  0  0  0  0  0  0  0  0  0  0
   -8.7670    0.2310  -21.2860 O   0  0  0  0  0  0  0  0  0  0  0  0
   -7.6670    0.6410  -23.2210 N   0  0  0  0  0  0  0  0  0  0  0  0
   -8.6880    1.5050  -23.8030 C   0  0  0  0  0  0  0  0  0  0  0  0
   -9.8890    0.7170  -24.2580 C   0  0  0  0  0  0  0  0  0  0  0  0
   -6.1330   -0.7220  -20.3350 C   0  0  0  0  0  0  0  0  0  0  0  0
   -5.0080    0.0790  -20.2080 C   0  0  0  0  0  0  0  0  0  0  0  0
   -6.3210   -0.8000  -17.9330 N   0  0  0  0  0  0  0  0  0  0  0  0
   -4.5510    0.4410  -18.9550 C   0  0  0  0  0  0  0  0  0  0  0  0
   -5.2370   -0.0220  -17.8510 C   0  0  0  0  0  0  0  0  0  0  0  0
   -6.7420   -1.1390  -19.1570 C   0  0  0  0  0  0  0  0  0  0  0  0
  2  1  2  0
  3  2  1  0
  4  3  1  0
  5  2  1  0
  6  5  1  0
  7  6  2  0
  8  7  1  0
  9  8  2  0
 10  9  1  0
 10 11  1  1
 12 10  1  0
 13 10  1  0
 14  9  1  0
 15 14  2  0
 15  6  1  0
 16  5  1  1
 17 16  1  0
 18 17  2  0
 19 17  1  0
 20 19  1  0
 21 20  1  0
 22 16  1  0
 23 22  2  0
 25 23  1  0
 26 24  1  0
 26 25  2  0
 27 24  2  0
 27 22  1  0
M  END
$$$$

     RDKit          3D

 21 23  0  0  0  0  0  0  0  0999 V2000
   -9.1980   -0.0830  -21.3070 O   0  0  0  0  0  0  0  0  0  0  0  0
   -8.6720   -1.1270  -21.6980 C   0  0  0  0  0  0  0  0  0  0  0  0
   -9.3000   -1.9850  -22.7800 C   0  0  0  0  0  0  0  0  0  0  0  0
  -10.7710   -1.6940  -22.9750 C   0  0  0  0  0  0  0  0  0  0  0  0
  -11.1930   -0.7290  -23.8860 C   0  0  0  0  0  0  0  0  0  0  0  0
  -12.5400   -0.4090  -24.0110 C   0  0  0  0  0  0  0  0  0  0  0  0
  -13.4870   -1.0510  -23.2290 C   0  0  0  0  0  0  0  0  0  0  0  0
  -11.7250   -2.3570  -22.2110 C   0  0  0  0  0  0  0  0  0  0  0  0
  -13.0480   -2.0140  -22.3550 C   0  0  0  0  0  0  0  0  0  0  0  0
  -13.9630   -2.6430  -21.5680 F   0  0  0  0  0  0  0  0  0  0  0  0
   -7.5060   -1.6010  -21.2040 N   0  0  0  0  0  0  0  0  0  0  0  0
   -6.7510   -1.0630  -20.1420 C   0  0  0  0  0  0  0  0  0  0  0  0
   -5.6200   -0.2450  -20.4520 C   0  0  0  0  0  0  0  0  0  0  0  0
   -5.1760    0.0210  -21.7730 C   0  0  0  0  0  0  0  0  0  0  0  0
   -4.1130    0.8510  -22.0050 C   0  0  0  0  0  0  0  0  0  0  0  0
   -3.4360    1.4430  -20.9480 C   0  0  0  0  0  0  0  0  0  0  0  0
   -3.8230    1.2160  -19.6580 C   0  0  0  0  0  0  0  0  0  0  0  0
   -4.9240    0.3720  -19.3730 C   0  0  0  0  0  0  0  0  0  0  0  0
   -5.4040    0.1390  -18.0580 C   0  0  0  0  0  0  0  0  0  0  0  0
   -6.4570   -0.6150  -17.7720 N   0  0  0  0  0  0  0  0  0  0  0  0
   -7.1020   -1.1950  -18.7970 C   0  0  0  0  0  0  0  0  0  0  0  0
  2  1  2  0
  3  2  1  0
  4  3  1  0
  5  4  2  0
  6  5  1  0
  7  6  2  0
  8  4  1  0
  9  8  2  0
  9  7  1  0
 10  9  1  0
 11  2  1  0
 12 11  1  0
 13 12  1  0
 14 13  2  0
 15 14  1  0
 16 15  2  0
 17 16  1  0
 18 13  1  0
 18 17  2  0
 19 18  1  0
 20 19  2  0
 21 20  1  0
 21 12  2  0
M  END
$$$$

     RDKit          3D

 20 21  0  0  0  0  0  0  0  0999 V2000
   -5.6350   -5.6810  -20.2550 O   0  0  0  0  0  0  0  0  0  0  0  0
   -6.3420   -4.7110  -20.4910 C   0  0  0  0  0  0  0  0  0  0  0  0
   -6.7700   -3.7740  -19.3790 C   0  0  0  0  0  0  0  0  0  0  0  0
   -6.7550   -4.4080  -21.7390 N   0  0  0  0  0  0  0  0  0  0  0  0
   -6.4650   -5.2950  -22.8720 C   0  0  0  0  0  0  0  0  0  0  0  0
   -5.6610   -4.5650  -23.9430 C   0  0  0  0  0  0  0  0  0  0  0  0
   -7.5040   -3.2070  -22.1370 C   0  0  0  0  0  0  0  0  0  0  0  0
   -6.7470   -2.4160  -23.2120 C   0  0  0  0  0  0  0  0  0  0  0  0
   -6.4290   -3.3200  -24.4110 C   0  0  1  0  0  0  0  0  0  0  0  0
   -5.6570   -2.5710  -25.4610 C   0  0  0  0  0  0  0  0  0  0  0  0
   -4.4370   -2.4550  -25.4120 O   0  0  0  0  0  0  0  0  0  0  0  0
   -6.4220   -2.0430  -26.4360 N   0  0  0  0  0  0  0  0  0  0  0  0
   -5.9960   -1.2450  -27.5210 C   0  0  0  0  0  0  0  0  0  0  0  0
   -6.4960    0.0450  -27.6770 C   0  0  0  0  0  0  0  0  0  0  0  0
   -6.2680    0.8130  -28.7500 N   0  0  0  0  0  0  0  0  0  0  0  0
   -5.5120    0.2920  -29.7100 C   0  0  0  0  0  0  0  0  0  0  0  0
   -5.3020    0.9630  -30.8630 O   0  0  0  0  0  0  0  0  0  0  0  0
   -5.8800    2.2640  -31.0040 C   0  0  0  0  0  0  0  0  0  0  0  0
   -4.9190   -0.9770  -29.6470 C   0  0  0  0  0  0  0  0  0  0  0  0
   -5.1720   -1.7400  -28.5230 C   0  0  0  0  0  0  0  0  0  0  0  0
  2  1  2  0
  3  2  1  0
  4  2  1  0
  5  4  1  0
  6  5  1  0
  7  4  1  0
  8  7  1  0
  9  8  1  0
  9  6  1  0
  9 10  1  6
 11 10  2  0
 12 10  1  0
 13 12  1  0
 14 13  2  0
 15 14  1  0
 16 15  2  0
 17 16  1  0
 18 17  1  0
 19 16  1  0
 20 13  1  0
 20 19  2  0
M  END
$$$$

     RDKit          3D

 17 19  0  0  0  0  0  0  0  0999 V2000
   -8.9060   -0.2250  -21.2720 O   0  0  0  0  0  0  0  0  0  0  0  0
   -8.2610   -1.1560  -21.7400 C   0  0  0  0  0  0  0  0  0  0  0  0
   -8.6710   -1.8420  -23.0200 C   0  0  0  0  0  0  0  0  0  0  0  0
  -10.0010   -2.5820  -22.9300 C   0  0  1  0  0  0  0  0  0  0  0  0
  -11.2930   -1.7620  -22.7060 C   0  0  0  0  0  0  0  0  0  0  0  0
  -11.9650   -2.4790  -23.8900 C   0  0  2  0  0  0  0  0  0  0  0  0
  -12.9990   -1.9690  -24.8370 C   0  0  0  0  0  0  0  0  0  0  0  0
  -13.3010   -3.1470  -23.9480 C   0  0  0  0  0  0  0  0  0  0  0  0
  -10.5880   -3.0420  -24.2850 C   0  0  0  0  0  0  0  0  0  0  0  0
   -7.1140   -1.6120  -21.2100 N   0  0  0  0  0  0  0  0  0  0  0  0
   -6.4120   -1.0160  -20.1400 C   0  0  0  0  0  0  0  0  0  0  0  0
   -5.2710   -0.2380  -20.4050 C   0  0  0  0  0  0  0  0  0  0  0  0
   -4.7540   -0.0320  -21.8060 C   0  0  0  0  0  0  0  0  0  0  0  0
   -6.8510   -1.1400  -18.8210 C   0  0  0  0  0  0  0  0  0  0  0  0
   -6.2390   -0.5530  -17.7860 N   0  0  0  0  0  0  0  0  0  0  0  0
   -5.1520    0.1820  -18.0500 C   0  0  0  0  0  0  0  0  0  0  0  0
   -4.6450    0.3640  -19.3210 C   0  0  0  0  0  0  0  0  0  0  0  0
  2  1  2  0
  3  2  1  0
  4  3  1  6
  5  4  1  0
  6  5  1  1
  7  6  1  0
  8  7  1  0
  8  6  1  0
  9  6  1  0
  9  4  1  0
 10  2  1  0
 11 10  1  0
 12 11  2  0
 13 12  1  0
 14 11  1  0
 15 14  2  0
 16 15  1  0
 17 16  2  0
 17 12  1  0
M  END
$$$$

     RDKit          3D

 20 21  0  0  0  0  0  0  0  0999 V2000
  -13.4480   -3.1280  -21.5390 Cl  0  0  0  0  0  0  0  0  0  0  0  0
  -12.3110   -2.2600  -22.5310 C   0  0  0  0  0  0  0  0  0  0  0  0
  -12.7790   -1.4060  -23.5090 C   0  0  0  0  0  0  0  0  0  0  0  0
  -11.8650   -0.7900  -24.3490 C   0  0  0  0  0  0  0  0  0  0  0  0
  -10.5050   -1.0150  -24.1840 C   0  0  0  0  0  0  0  0  0  0  0  0
  -10.9620   -2.4810  -22.3470 C   0  0  0  0  0  0  0  0  0  0  0  0
  -10.0420   -1.8480  -23.1740 C   0  0  0  0  0  0  0  0  0  0  0  0
   -8.5540   -2.0530  -22.9290 C   0  0  1  0  0  0  0  0  0  0  0  0
   -7.7120   -2.0070  -24.2020 C   0  0  0  0  0  0  0  0  0  0  0  0
   -6.3520   -2.2860  -23.8920 O   0  0  0  0  0  0  0  0  0  0  0  0
   -8.0820   -1.0550  -21.8710 C   0  0  0  0  0  0  0  0  0  0  0  0
   -8.4390    0.1140  -21.8710 O   0  0  0  0  0  0  0  0  0  0  0  0
   -7.3320   -1.5880  -20.8900 N   0  0  0  0  0  0  0  0  0  0  0  0
   -6.3670   -1.0880  -19.9940 C   0  0  0  0  0  0  0  0  0  0  0  0
   -5.3320   -0.2220  -20.3890 C   0  0  0  0  0  0  0  0  0  0  0  0
   -4.9130   -0.0780  -21.8300 C   0  0  0  0  0  0  0  0  0  0  0  0
   -6.6650   -1.1880  -18.6370 C   0  0  0  0  0  0  0  0  0  0  0  0
   -6.0400   -0.4910  -17.6890 N   0  0  0  0  0  0  0  0  0  0  0  0
   -5.0360    0.3060  -18.0730 C   0  0  0  0  0  0  0  0  0  0  0  0
   -4.6540    0.4640  -19.3910 C   0  0  0  0  0  0  0  0  0  0  0  0
  2  1  1  0
  3  2  2  0
  4  3  1  0
  5  4  2  0
  6  2  1  0
  7  6  2  0
  7  5  1  0
  8  7  1  0
  8  9  1  6
 10  9  1  0
 11  8  1  0
 12 11  2  0
 13 11  1  0
 14 13  1  0
 15 14  2  0
 16 15  1  0
 17 14  1  0
 18 17  2  0
 19 18  1  0
 20 19  2  0
 20 15  1  0
M  END
$$$$

     RDKit          3D

 25 27  0  0  0  0  0  0  0  0999 V2000
   -6.3500    0.0750  -17.0680 O   0  0  0  0  0  0  0  0  0  0  0  0
   -5.7420   -0.1810  -18.1130 C   0  0  0  0  0  0  0  0  0  0  0  0
   -6.0880   -1.2460  -18.9900 C   0  0  0  0  0  0  0  0  0  0  0  0
   -4.7240    0.6360  -18.5360 N   0  0  0  0  0  0  0  0  0  0  0  0
   -4.0690    0.5080  -19.7600 C   0  0  0  0  0  0  0  0  0  0  0  0
   -4.4610   -0.5070  -20.6530 C   0  0  0  0  0  0  0  0  0  0  0  0
   -3.8320   -0.6050  -21.8970 C   0  0  0  0  0  0  0  0  0  0  0  0
   -2.7920    0.2540  -22.2150 C   0  0  0  0  0  0  0  0  0  0  0  0
   -2.3790    1.2140  -21.3140 C   0  0  0  0  0  0  0  0  0  0  0  0
   -3.0200    1.3580  -20.0950 C   0  0  0  0  0  0  0  0  0  0  0  0
   -5.4980   -1.4260  -20.1990 C   0  0  0  0  0  0  0  0  0  0  0  0
   -5.8780   -2.6010  -21.0060 C   0  0  0  0  0  0  0  0  0  0  0  0
   -5.1220   -3.5630  -21.1250 O   0  0  0  0  0  0  0  0  0  0  0  0
   -7.0620   -2.5330  -21.6120 N   0  0  0  0  0  0  0  0  0  0  0  0
   -7.5450   -3.5930  -22.4830 C   0  0  0  0  0  0  0  0  0  0  0  0
   -9.0410   -3.5870  -22.5650 C   0  0  0  0  0  0  0  0  0  0  0  0
   -9.4470   -2.2560  -22.9200 O   0  0  0  0  0  0  0  0  0  0  0  0
  -10.7870   -1.9520  -22.9660 C   0  0  0  0  0  0  0  0  0  0  0  0
  -11.1030   -0.6770  -23.4810 C   0  0  0  0  0  0  0  0  0  0  0  0
  -10.0270    0.0780  -23.8620 O   0  0  0  0  0  0  0  0  0  0  0  0
  -10.2750    1.3960  -24.3590 C   0  0  0  0  0  0  0  0  0  0  0  0
  -11.8040   -2.7820  -22.5090 C   0  0  0  0  0  0  0  0  0  0  0  0
  -13.1150   -2.3340  -22.5320 C   0  0  0  0  0  0  0  0  0  0  0  0
  -13.4250   -1.0840  -23.0350 C   0  0  0  0  0  0  0  0  0  0  0  0
  -12.4250   -0.2550  -23.5250 C   0  0  0  0  0  0  0  0  0  0  0  0
  2  1  2  0
  3  2  1  0
  4  2  1  0
  5  4  1  0
  6  5  2  0
  7  6  1  0
  8  7  2  0
  9  8  1  0
 10  9  2  0
 10  5  1  0
 11  3  2  0
 11  6  1  0
 12 11  1  0
 13 12  2  0
 14 12  1  0
 15 14  1  0
 16 15  1  0
 17 16  1  0
 18 17  1  0
 19 18  2  0
 20 19  1  0
 21 20  1  0
 22 18  1  0
 23 22  2  0
 24 23  1  0
 25 24  2  0
 25 19  1  0
M  END
$$$$

     RDKit          3D

 34 38  0  0  0  0  0  0  0  0999 V2000
   -5.9910    0.0620  -25.0520 O   0  0  0  0  0  0  0  0  0  0  0  0
   -7.2500    0.7340  -24.9630 S   0  0  2  0  0  0  0  0  0  0  0  0
   -7.7020    1.5130  -26.0730 O   0  0  0  0  0  0  0  0  0  0  0  0
   -7.2440    1.7830  -23.5220 C   0  0  0  0  0  0  0  0  0  0  0  0
   -6.7330    3.2190  -23.6760 C   0  0  2  0  0  0  0  0  0  0  0  0
   -5.2320    3.2480  -23.9850 C   0  0  0  0  0  0  0  0  0  0  0  0
   -4.7080    4.6660  -23.9930 C   0  0  0  0  0  0  0  0  0  0  0  0
   -4.9970    5.3380  -22.7570 O   0  0  0  0  0  0  0  0  0  0  0  0
   -6.4130    5.4230  -22.5480 C   0  0  0  0  0  0  0  0  0  0  0  0
   -7.0330    4.0510  -22.4300 C   0  0  0  0  0  0  0  0  0  0  0  0
   -8.3800   -0.3960  -24.6720 N   0  0  0  0  0  0  0  0  0  0  0  0
   -9.7550   -0.1790  -25.1380 C   0  0  0  0  0  0  0  0  0  0  0  0
   -8.0640   -1.7740  -24.2550 C   0  0  0  0  0  0  0  0  0  0  0  0
   -8.8660   -2.0310  -22.9780 C   0  0  2  0  0  0  0  0  0  0  0  0
  -10.3410   -1.7470  -23.2080 C   0  0  0  0  0  0  0  0  0  0  0  0
  -10.7420   -0.8300  -24.1960 C   0  0  0  0  0  0  0  0  0  0  0  0
  -12.0910   -0.5020  -24.3110 C   0  0  0  0  0  0  0  0  0  0  0  0
  -13.0370   -1.0610  -23.4720 C   0  0  0  0  0  0  0  0  0  0  0  0
  -11.3070   -2.3420  -22.3940 C   0  0  0  0  0  0  0  0  0  0  0  0
  -12.6350   -1.9880  -22.5390 C   0  0  0  0  0  0  0  0  0  0  0  0
  -13.8340   -2.7530  -21.5320 Cl  0  0  0  0  0  0  0  0  0  0  0  0
   -8.3310   -1.1730  -21.8280 C   0  0  0  0  0  0  0  0  0  0  0  0
   -8.9200   -0.1640  -21.4320 O   0  0  0  0  0  0  0  0  0  0  0  0
   -7.1740   -1.6230  -21.2740 N   0  0  0  0  0  0  0  0  0  0  0  0
   -6.4900   -1.0900  -20.1560 C   0  0  0  0  0  0  0  0  0  0  0  0
   -5.3680   -0.2250  -20.3700 C   0  0  0  0  0  0  0  0  0  0  0  0
   -4.7760   -0.0010  -21.6410 C   0  0  0  0  0  0  0  0  0  0  0  0
   -3.7100    0.8430  -21.7800 C   0  0  0  0  0  0  0  0  0  0  0  0
   -3.1820    1.5060  -20.6800 C   0  0  0  0  0  0  0  0  0  0  0  0
   -3.7080    1.3150  -19.4340 C   0  0  0  0  0  0  0  0  0  0  0  0
   -4.8040    0.4360  -19.2420 C   0  0  0  0  0  0  0  0  0  0  0  0
   -5.3650    0.1650  -17.9710 C   0  0  0  0  0  0  0  0  0  0  0  0
   -6.3830   -0.6600  -17.7650 N   0  0  0  0  0  0  0  0  0  0  0  0
   -6.9210   -1.2590  -18.8380 C   0  0  0  0  0  0  0  0  0  0  0  0
  2  1  2  0
  3  2  2  0
  2  4  1  1
  5  4  1  1
  6  5  1  0
  7  6  1  0
  8  7  1  0
  9  8  1  0
 10  9  1  0
 10  5  1  0
 11  2  1  0
 12 11  1  0
 13 11  1  0
 14 13  1  0
 15 14  1  0
 16 15  2  0
 16 12  1  0
 17 16  1  0
 18 17  2  0
 19 15  1  0
 20 19  2  0
 20 18  1  0
 21 20  1  0
 14 22  1  1
 23 22  2  0
 24 22  1  0
 25 24  1  0
 26 25  1  0
 27 26  2  0
 28 27  1  0
 29 28  2  0
 30 29  1  0
 31 30  2  0
 31 26  1  0
 32 31  1  0
 33 32  2  0
 34 33  1  0
 34 25  2  0
M  END
$$$$

     RDKit          3D

 27 31  0  0  0  0  0  0  0  0999 V2000
   -9.3100    0.2610  -21.2910 O   0  0  0  0  0  0  0  0  0  0  0  0
   -8.8510   -0.6740  -21.9290 C   0  0  0  0  0  0  0  0  0  0  0  0
   -9.5170   -1.1350  -23.2270 C   0  0  2  0  0  0  0  0  0  0  0  0
   -8.9550   -0.2210  -24.3440 C   0  0  0  0  0  0  0  0  0  0  0  0
   -9.8210    0.9970  -24.5860 C   0  0  0  0  0  0  0  0  0  0  0  0
  -11.1710    0.6320  -24.8950 O   0  0  0  0  0  0  0  0  0  0  0  0
  -11.0500   -1.0430  -23.1410 C   0  0  0  0  0  0  0  0  0  0  0  0
  -11.7680   -0.1370  -23.9300 C   0  0  0  0  0  0  0  0  0  0  0  0
  -13.1390    0.0180  -23.8030 C   0  0  0  0  0  0  0  0  0  0  0  0
  -13.8230   -0.7590  -22.8850 C   0  0  0  0  0  0  0  0  0  0  0  0
  -11.7580   -1.8390  -22.2410 C   0  0  0  0  0  0  0  0  0  0  0  0
  -13.1290   -1.6820  -22.1280 C   0  0  0  0  0  0  0  0  0  0  0  0
  -13.9990   -2.6670  -20.9840 Cl  0  0  0  0  0  0  0  0  0  0  0  0
   -7.6970   -1.3060  -21.5380 N   0  0  0  0  0  0  0  0  0  0  0  0
   -7.2970   -2.6500  -21.9830 C   0  0  0  0  0  0  0  0  0  0  0  0
   -8.4580   -3.4120  -22.5860 C   0  0  0  0  0  0  0  0  0  0  0  0
   -9.1690   -2.5830  -23.6480 C   0  0  0  0  0  0  0  0  0  0  0  0
   -6.9570   -0.8390  -20.4010 C   0  0  0  0  0  0  0  0  0  0  0  0
   -5.8030   -0.0170  -20.5800 C   0  0  0  0  0  0  0  0  0  0  0  0
   -5.2780    0.3550  -21.8490 C   0  0  0  0  0  0  0  0  0  0  0  0
   -4.1900    1.1740  -21.9460 C   0  0  0  0  0  0  0  0  0  0  0  0
   -3.5740    1.6760  -20.8040 C   0  0  0  0  0  0  0  0  0  0  0  0
   -4.0310    1.3370  -19.5600 C   0  0  0  0  0  0  0  0  0  0  0  0
   -5.1430    0.4710  -19.4140 C   0  0  0  0  0  0  0  0  0  0  0  0
   -5.6440    0.0670  -18.1530 C   0  0  0  0  0  0  0  0  0  0  0  0
   -6.6940   -0.7220  -17.9880 N   0  0  0  0  0  0  0  0  0  0  0  0
   -7.3250   -1.1460  -19.0920 C   0  0  0  0  0  0  0  0  0  0  0  0
  2  1  2  0
  3  2  1  0
  3  4  1  6
  5  4  1  0
  6  5  1  0
  7  3  1  0
  8  7  2  0
  8  6  1  0
  9  8  1  0
 10  9  2  0
 11  7  1  0
 12 11  2  0
 12 10  1  0
 13 12  1  0
 14  2  1  0
 15 14  1  0
 16 15  1  0
 17 16  1  0
 17  3  1  0
 18 14  1  0
 19 18  1  0
 20 19  2  0
 21 20  1  0
 22 21  2  0
 23 22  1  0
 24 19  1  0
 24 23  2  0
 25 24  1  0
 26 25  2  0
 27 26  1  0
 27 18  2  0
M  END
$$$$

     RDKit          3D

 23 25  0  0  0  0  0  0  0  0999 V2000
  -13.7360   -2.7990  -21.4180 Cl  0  0  0  0  0  0  0  0  0  0  0  0
  -12.4690   -2.1180  -22.3960 C   0  0  0  0  0  0  0  0  0  0  0  0
  -12.7800   -1.1410  -23.3200 C   0  0  0  0  0  0  0  0  0  0  0  0
  -11.7640   -0.6250  -24.1070 C   0  0  0  0  0  0  0  0  0  0  0  0
  -10.4600   -1.0700  -23.9490 C   0  0  0  0  0  0  0  0  0  0  0  0
  -11.1770   -2.5700  -22.2240 C   0  0  0  0  0  0  0  0  0  0  0  0
  -10.1500   -2.0260  -22.9880 C   0  0  0  0  0  0  0  0  0  0  0  0
   -8.7000   -2.3940  -22.6960 C   0  0  1  0  0  0  0  0  0  0  0  0
   -7.8830   -2.5380  -23.9850 C   0  0  0  0  0  0  0  0  0  0  0  0
   -8.1480   -1.3540  -21.7160 C   0  0  0  0  0  0  0  0  0  0  0  0
   -8.7590   -0.3160  -21.4640 O   0  0  0  0  0  0  0  0  0  0  0  0
   -6.9660   -1.6790  -21.1280 N   0  0  0  0  0  0  0  0  0  0  0  0
   -6.2990   -0.9440  -20.1190 C   0  0  0  0  0  0  0  0  0  0  0  0
   -5.1930   -0.1280  -20.4130 C   0  0  0  0  0  0  0  0  0  0  0  0
   -4.5560    0.5470  -19.3810 C   0  0  0  0  0  0  0  0  0  0  0  0
   -5.0580    0.3880  -18.1020 C   0  0  0  0  0  0  0  0  0  0  0  0
   -6.1160   -0.3720  -17.7980 N   0  0  0  0  0  0  0  0  0  0  0  0
   -6.7190   -1.0240  -18.7950 C   0  0  0  0  0  0  0  0  0  0  0  0
   -4.7080    0.0550  -21.7460 N   0  0  0  0  0  0  0  0  0  0  0  0
   -3.3740    0.2190  -21.9720 N   0  0  0  0  0  0  0  0  0  0  0  0
   -3.2960    0.4700  -23.2720 C   0  0  0  0  0  0  0  0  0  0  0  0
   -4.5460    0.4640  -23.8890 C   0  0  0  0  0  0  0  0  0  0  0  0
   -5.4330    0.1900  -22.8870 C   0  0  0  0  0  0  0  0  0  0  0  0
  2  1  1  0
  3  2  2  0
  4  3  1  0
  5  4  2  0
  6  2  1  0
  7  6  2  0
  7  5  1  0
  8  7  1  0
  8  9  1  6
 10  8  1  0
 11 10  2  0
 12 10  1  0
 13 12  1  0
 14 13  1  0
 15 14  2  0
 16 15  1  0
 17 16  2  0
 18 17  1  0
 18 13  2  0
 19 14  1  0
 20 19  1  0
 21 20  2  0
 22 21  1  0
 23 22  2  0
 23 19  1  0
M  END
$$$$

     RDKit          3D

 21 23  0  0  0  0  0  0  0  0999 V2000
  -13.8970   -2.6750  -21.7130 Cl  0  0  0  0  0  0  0  0  0  0  0  0
  -12.6030   -2.0380  -22.6880 C   0  0  0  0  0  0  0  0  0  0  0  0
  -12.8960   -1.1330  -23.6880 C   0  0  0  0  0  0  0  0  0  0  0  0
  -11.8510   -0.6080  -24.4320 C   0  0  0  0  0  0  0  0  0  0  0  0
  -10.5420   -0.9740  -24.1530 C   0  0  0  0  0  0  0  0  0  0  0  0
  -11.3050   -2.4200  -22.4070 C   0  0  0  0  0  0  0  0  0  0  0  0
  -10.2530   -1.8670  -23.1290 C   0  0  0  0  0  0  0  0  0  0  0  0
   -8.8200   -2.1770  -22.7490 C   0  0  0  0  0  0  0  0  0  0  0  0
   -8.2550   -1.2330  -21.7070 C   0  0  0  0  0  0  0  0  0  0  0  0
   -8.7970   -0.1580  -21.4420 O   0  0  0  0  0  0  0  0  0  0  0  0
   -7.1250   -1.6740  -21.1050 N   0  0  0  0  0  0  0  0  0  0  0  0
   -6.4440   -1.0380  -20.0390 C   0  0  0  0  0  0  0  0  0  0  0  0
   -6.8540   -1.2490  -18.7240 C   0  0  0  0  0  0  0  0  0  0  0  0
   -6.3220   -0.6150  -17.6700 N   0  0  0  0  0  0  0  0  0  0  0  0
   -5.3400    0.2660  -17.8970 C   0  0  0  0  0  0  0  0  0  0  0  0
   -5.4020   -0.1230  -20.2480 C   0  0  0  0  0  0  0  0  0  0  0  0
   -4.7450    0.3040  -21.3710 N   0  0  0  0  0  0  0  0  0  0  0  0
   -4.9440   -0.0670  -22.7620 C   0  0  0  0  0  0  0  0  0  0  0  0
   -4.8210    0.5670  -19.1610 C   0  0  0  0  0  0  0  0  0  0  0  0
   -3.8270    1.3840  -19.7570 C   0  0  0  0  0  0  0  0  0  0  0  0
   -3.7830    1.2220  -21.0630 N   0  0  0  0  0  0  0  0  0  0  0  0
  2  1  1  0
  3  2  2  0
  4  3  1  0
  5  4  2  0
  6  2  1  0
  7  6  2  0
  7  5  1  0
  8  7  1  0
  9  8  1  0
 10  9  2  0
 11  9  1  0
 12 11  1  0
 13 12  2  0
 14 13  1  0
 15 14  2  0
 16 12  1  0
 17 16  1  0
 18 17  1  0
 19 16  2  0
 19 15  1  0
 20 19  1  0
 21 20  2  0
 21 17  1  0
M  END
$$$$

     RDKit          3D

 19 20  0  0  0  0  0  0  0  0999 V2000
   -6.9710   -1.5690  -21.2640 N   0  0  0  0  0  0  0  0  0  0  0  0
   -5.1200    0.2950  -18.0800 C   0  0  0  0  0  0  0  0  0  0  0  0
   -8.1530   -1.1710  -21.8010 C   0  0  0  0  0  0  0  0  0  0  0  0
  -11.1740   -2.3180  -22.2890 C   0  0  0  0  0  0  0  0  0  0  0  0
   -8.7600   -2.0010  -22.9160 C   0  0  0  0  0  0  0  0  0  0  0  0
  -12.9440   -1.0790  -23.3620 C   0  0  0  0  0  0  0  0  0  0  0  0
  -12.0010   -0.4430  -24.1550 C   0  0  0  0  0  0  0  0  0  0  0  0
  -10.6550   -0.7460  -24.0180 C   0  0  0  0  0  0  0  0  0  0  0  0
   -6.7860   -1.0170  -18.9290 C   0  0  0  0  0  0  0  0  0  0  0  0
   -5.1720   -0.0600  -20.4470 C   0  0  0  0  0  0  0  0  0  0  0  0
   -6.3010   -0.8500  -20.2250 C   0  0  0  0  0  0  0  0  0  0  0  0
   -4.5730    0.5090  -19.3280 C   0  0  0  0  0  0  0  0  0  0  0  0
   -4.6280    0.2080  -21.8280 C   0  0  0  0  0  0  0  0  0  0  0  0
   -6.3570   -2.8250  -21.6970 C   0  0  0  0  0  0  0  0  0  0  0  0
   -6.2100   -0.4510  -17.8640 N   0  0  0  0  0  0  0  0  0  0  0  0
   -8.7370   -0.1690  -21.4010 O   0  0  0  0  0  0  0  0  0  0  0  0
  -12.5100   -2.0190  -22.4480 C   0  0  0  0  0  0  0  0  0  0  0  0
  -10.2280   -1.6850  -23.0880 C   0  0  0  0  0  0  0  0  0  0  0  0
  -13.6830   -2.9420  -21.5590 Cl  0  0  0  0  0  0  0  0  0  0  0  0
  3  1  1  0
  5  3  1  0
  7  6  2  0
  8  7  1  0
 11  9  1  0
 11  1  1  0
 11 10  2  0
 12 10  1  0
 12  2  2  0
 13 10  1  0
 14  1  1  0
 15  9  2  0
 15  2  1  0
 16  3  2  0
 17  6  1  0
 17  4  2  0
 18  4  1  0
 18  8  2  0
 18  5  1  0
 19 17  1  0
M  END
$$$$

     RDKit          3D

 25 27  0  0  0  0  0  0  0  0999 V2000
   -5.4290   -1.5290  -20.1390 C   0  0  0  0  0  0  0  0  0  0  0  0
  -10.2380   -3.2290  -23.8960 C   0  0  0  0  0  0  0  0  0  0  0  0
  -11.3830   -2.6380  -23.3410 C   0  0  0  0  0  0  0  0  0  0  0  0
  -12.6380   -2.9160  -23.8840 C   0  0  0  0  0  0  0  0  0  0  0  0
  -12.8530   -3.7660  -24.9710 C   0  0  0  0  0  0  0  0  0  0  0  0
  -11.6760   -4.3280  -25.4840 C   0  0  0  0  0  0  0  0  0  0  0  0
  -10.4140   -4.0860  -24.9890 C   0  0  0  0  0  0  0  0  0  0  0  0
   -4.2080    0.5620  -20.0050 C   0  0  0  0  0  0  0  0  0  0  0  0
   -5.6130   -2.7310  -21.0320 C   0  0  0  0  0  0  0  0  0  0  0  0
   -5.7610   -0.1170  -18.2220 C   0  0  0  0  0  0  0  0  0  0  0  0
   -6.0490   -1.3260  -18.9570 C   0  0  0  0  0  0  0  0  0  0  0  0
  -14.1930   -4.0770  -25.5650 C   0  0  0  0  0  0  0  0  0  0  0  0
   -6.6120   -3.7140  -23.1190 C   0  0  0  0  0  0  0  0  0  0  0  0
   -8.0640   -4.1530  -23.2120 C   0  0  0  0  0  0  0  0  0  0  0  0
   -8.7570   -1.9670  -22.3970 C   0  0  0  0  0  0  0  0  0  0  0  0
   -7.3030   -1.5320  -22.3310 C   0  0  0  0  0  0  0  0  0  0  0  0
   -4.5390   -0.6130  -20.6310 N   0  0  0  0  0  0  0  0  0  0  0  0
   -4.8490    0.7430  -18.8100 N   0  0  0  0  0  0  0  0  0  0  0  0
   -6.4420   -2.6870  -22.0900 N   0  0  0  0  0  0  0  0  0  0  0  0
   -8.9410   -2.9930  -23.4210 N   0  0  0  0  0  0  0  0  0  0  0  0
   -3.4200    1.3700  -20.4610 O   0  0  0  0  0  0  0  0  0  0  0  0
   -6.2480    0.1990  -17.1550 O   0  0  0  0  0  0  0  0  0  0  0  0
   -4.9560   -3.7240  -20.7310 O   0  0  0  0  0  0  0  0  0  0  0  0
  -11.7970   -5.4210  -26.8570 Cl  0  0  0  0  0  0  0  0  0  0  0  0
  -14.0310   -2.1390  -23.1270 Cl  0  0  0  0  0  0  0  0  0  0  0  0
  3  2  2  0
  4  3  1  0
  5  4  2  0
  6  5  1  0
  7  6  2  0
  7  2  1  0
  9  1  1  0
 11 10  1  0
 11  1  2  0
 12  5  1  0
 14 13  1  0
 16 15  1  0
 17  8  1  0
 17  1  1  0
 18 10  1  0
 18  8  1  0
 19 16  1  0
 19 13  1  0
 19  9  1  0
 20 15  1  0
 20 14  1  0
 20  2  1  0
 21  8  2  0
 22 10  2  0
 23  9  2  0
 24  6  1  0
 25  4  1  0
M  END
$$$$

     RDKit          3D

 32 35  0  0  0  0  0  0  0  0999 V2000
   -9.1900    0.0340  -21.1840 O   0  0  0  0  0  0  0  0  0  0  0  0
   -8.5960   -0.8740  -21.7460 C   0  0  0  0  0  0  0  0  0  0  0  0
   -7.4050   -1.3390  -21.3040 N   0  0  0  0  0  0  0  0  0  0  0  0
   -6.6810   -0.8670  -20.1930 C   0  0  0  0  0  0  0  0  0  0  0  0
   -5.5500   -0.0200  -20.4170 C   0  0  0  0  0  0  0  0  0  0  0  0
   -5.0890    0.3600  -21.7070 C   0  0  0  0  0  0  0  0  0  0  0  0
   -4.0230    1.2020  -21.8520 C   0  0  0  0  0  0  0  0  0  0  0  0
   -3.3650    1.7100  -20.7380 C   0  0  0  0  0  0  0  0  0  0  0  0
   -3.7670    1.3700  -19.4780 C   0  0  0  0  0  0  0  0  0  0  0  0
   -4.8650    0.4960  -19.2840 C   0  0  0  0  0  0  0  0  0  0  0  0
   -5.3480    0.1300  -18.0030 C   0  0  0  0  0  0  0  0  0  0  0  0
   -6.3960   -0.6520  -17.7950 N   0  0  0  0  0  0  0  0  0  0  0  0
   -7.0330   -1.1320  -18.8700 C   0  0  0  0  0  0  0  0  0  0  0  0
   -9.1490   -1.4960  -23.0510 C   0  0  1  0  0  0  0  0  0  0  0  0
  -10.6670   -1.3160  -23.0730 C   0  0  0  0  0  0  0  0  0  0  0  0
  -11.5080   -2.1270  -22.3130 C   0  0  0  0  0  0  0  0  0  0  0  0
  -12.8750   -1.9270  -22.3740 C   0  0  0  0  0  0  0  0  0  0  0  0
  -13.9040   -2.7860  -21.2580 Cl  0  0  0  0  0  0  0  0  0  0  0  0
  -13.4380   -0.9850  -23.2080 C   0  0  0  0  0  0  0  0  0  0  0  0
  -12.6150   -0.1830  -23.9740 C   0  0  0  0  0  0  0  0  0  0  0  0
  -11.2430   -0.3460  -23.8910 C   0  0  0  0  0  0  0  0  0  0  0  0
  -10.4910    0.5050  -24.6590 O   0  0  0  0  0  0  0  0  0  0  0  0
   -9.3340   -0.1310  -25.2050 C   0  0  0  0  0  0  0  0  0  0  0  0
   -8.4060   -0.6700  -24.1310 C   0  0  0  0  0  0  0  0  0  0  0  0
   -8.7780   -2.9940  -23.1010 C   0  0  0  0  0  0  0  0  0  0  0  0
   -9.1050   -3.6650  -24.3470 N   0  0  0  0  0  0  0  0  0  0  0  0
   -8.6700   -4.8960  -24.6090 C   0  0  0  0  0  0  0  0  0  0  0  0
   -7.9050   -5.5040  -23.8610 O   0  0  0  0  0  0  0  0  0  0  0  0
   -9.2500   -5.5520  -25.8520 C   0  0  0  0  0  0  0  0  0  0  0  0
   -8.4280   -5.4190  -27.0600 N   0  0  2  0  0  0  0  0  0  0  0  0
   -9.1130   -5.9940  -28.2140 C   0  0  0  0  0  0  0  0  0  0  0  0
   -7.1310   -6.0680  -26.8830 C   0  0  0  0  0  0  0  0  0  0  0  0
  2  1  2  0
  3  2  1  0
  4  3  1  0
  5  4  1  0
  6  5  2  0
  7  6  1  0
  8  7  2  0
  9  8  1  0
 10  5  1  0
 10  9  2  0
 11 10  1  0
 12 11  2  0
 13 12  1  0
 13  4  2  0
 14  2  1  0
 15 14  1  0
 16 15  2  0
 17 16  1  0
 18 17  1  0
 19 17  2  0
 20 19  1  0
 21 20  2  0
 21 15  1  0
 22 21  1  0
 23 22  1  0
 24 23  1  0
 24 14  1  0
 14 25  1  1
 26 25  1  0
 27 26  1  0
 28 27  2  0
 29 27  1  0
 30 29  1  0
 30 31  1  6
 32 30  1  0
M  CHG  1  30   1
M  END
$$$$

     RDKit          3D

 25 28  0  0  0  0  0  0  0  0999 V2000
   -8.9760    0.1520  -21.5970 O   0  0  0  0  0  0  0  0  0  0  0  0
   -8.5750   -0.9430  -21.9730 C   0  0  0  0  0  0  0  0  0  0  0  0
   -7.8820   -1.9010  -21.0000 C   0  0  0  0  0  0  0  0  0  0  0  0
   -7.0710   -1.2000  -20.0230 N   0  0  0  0  0  0  0  0  0  0  0  0
   -5.9630   -0.4310  -20.2120 C   0  0  0  0  0  0  0  0  0  0  0  0
   -5.2770    0.0060  -21.3350 C   0  0  0  0  0  0  0  0  0  0  0  0
   -4.2030    0.8630  -21.1440 C   0  0  0  0  0  0  0  0  0  0  0  0
   -3.8230    1.2600  -19.8650 C   0  0  0  0  0  0  0  0  0  0  0  0
   -4.5040    0.8020  -18.7440 C   0  0  0  0  0  0  0  0  0  0  0  0
   -5.5870   -0.0520  -18.9270 C   0  0  0  0  0  0  0  0  0  0  0  0
   -6.4650   -0.6160  -18.0270 N   0  0  0  0  0  0  0  0  0  0  0  0
   -7.3500   -1.3000  -18.6980 N   0  0  0  0  0  0  0  0  0  0  0  0
   -8.7190   -1.3600  -23.2620 N   0  0  0  0  0  0  0  0  0  0  0  0
   -9.8750   -1.0280  -24.1120 C   0  0  2  0  0  0  0  0  0  0  0  0
   -9.7910    0.3790  -24.7270 C   0  0  0  0  0  0  0  0  0  0  0  0
   -8.4210    0.7250  -25.3230 C   0  0  0  0  0  0  0  0  0  0  0  0
   -7.5800   -0.4280  -25.8930 C   0  0  0  0  0  0  0  0  0  0  0  0
   -6.8410   -1.3330  -24.9050 C   0  0  0  0  0  0  0  0  0  0  0  0
   -7.6680   -2.1440  -23.9140 C   0  0  0  0  0  0  0  0  0  0  0  0
  -11.2150   -1.4110  -23.5180 C   0  0  0  0  0  0  0  0  0  0  0  0
  -11.4090   -2.6800  -22.9930 C   0  0  0  0  0  0  0  0  0  0  0  0
  -12.6370   -3.0510  -22.4720 C   0  0  0  0  0  0  0  0  0  0  0  0
  -13.6870   -2.1630  -22.4730 C   0  0  0  0  0  0  0  0  0  0  0  0
  -13.5150   -0.9030  -23.0060 C   0  0  0  0  0  0  0  0  0  0  0  0
  -12.2860   -0.5250  -23.5200 C   0  0  0  0  0  0  0  0  0  0  0  0
  2  1  2  0
  3  2  1  0
  4  3  1  0
  5  4  1  0
  6  5  2  0
  7  6  1  0
  8  7  2  0
  9  8  1  0
 10  5  1  0
 10  9  2  0
 11 10  1  0
 12 11  2  0
 12  4  1  0
 13  2  1  0
 14 13  1  0
 15 14  1  0
 16 15  1  0
 17 16  1  0
 18 17  2  0
 19 18  1  0
 19 13  1  0
 14 20  1  1
 21 20  2  0
 22 21  1  0
 23 22  2  0
 24 23  1  0
 25 24  2  0
 25 20  1  0
M  END
$$$$

     RDKit          3D

 24 26  0  0  0  0  0  0  0  0999 V2000
  -13.4650   -3.0660  -21.9900 Cl  0  0  0  0  0  0  0  0  0  0  0  0
  -12.2720   -2.0900  -22.7770 C   0  0  0  0  0  0  0  0  0  0  0  0
  -12.6500   -1.0600  -23.6270 C   0  0  0  0  0  0  0  0  0  0  0  0
  -14.3210   -0.6700  -23.8630 Cl  0  0  0  0  0  0  0  0  0  0  0  0
  -11.6880   -0.3040  -24.2650 C   0  0  0  0  0  0  0  0  0  0  0  0
  -10.3500   -0.5650  -24.0450 C   0  0  0  0  0  0  0  0  0  0  0  0
  -10.9280   -2.3460  -22.5500 C   0  0  0  0  0  0  0  0  0  0  0  0
   -9.9530   -1.5760  -23.1830 C   0  0  0  0  0  0  0  0  0  0  0  0
   -8.4770   -1.8210  -22.9060 C   0  0  2  0  0  0  0  0  0  0  0  0
   -8.1000   -3.2440  -23.0480 N   0  0  0  0  0  0  0  0  0  0  0  0
   -7.4460   -3.4620  -24.3380 C   0  0  0  0  0  0  0  0  0  0  0  0
   -8.0120   -1.0670  -21.6340 C   0  0  0  0  0  0  0  0  0  0  0  0
   -8.5420   -0.0120  -21.2870 O   0  0  0  0  0  0  0  0  0  0  0  0
   -6.9500   -1.6190  -21.0080 N   0  0  0  0  0  0  0  0  0  0  0  0
   -6.2130   -1.0700  -19.9410 C   0  0  0  0  0  0  0  0  0  0  0  0
   -5.1510   -0.1630  -20.2490 C   0  0  0  0  0  0  0  0  0  0  0  0
   -4.6650    0.0740  -21.5620 C   0  0  0  0  0  0  0  0  0  0  0  0
   -3.6530    0.9650  -21.7890 C   0  0  0  0  0  0  0  0  0  0  0  0
   -3.0710    1.6570  -20.7360 C   0  0  0  0  0  0  0  0  0  0  0  0
   -3.5000    1.4640  -19.4540 C   0  0  0  0  0  0  0  0  0  0  0  0
   -4.5510    0.5500  -19.1740 C   0  0  0  0  0  0  0  0  0  0  0  0
   -5.0370    0.3020  -17.8670 C   0  0  0  0  0  0  0  0  0  0  0  0
   -6.0040   -0.5590  -17.5830 N   0  0  0  0  0  0  0  0  0  0  0  0
   -6.5640   -1.2230  -18.6010 C   0  0  0  0  0  0  0  0  0  0  0  0
  2  1  1  0
  3  2  2  0
  4  3  1  0
  5  3  1  0
  6  5  2  0
  7  2  1  0
  8  7  2  0
  8  6  1  0
  9  8  1  0
  9 10  1  1
 11 10  1  0
 12  9  1  0
 13 12  2  0
 14 12  1  0
 15 14  1  0
 16 15  1  0
 17 16  2  0
 18 17  1  0
 19 18  2  0
 20 19  1  0
 21 20  2  0
 21 16  1  0
 22 21  1  0
 23 22  2  0
 24 23  1  0
 24 15  2  0
M  CHG  1  10   1
M  END
$$$$

     RDKit          3D

 31 34  0  0  0  0  0  0  0  0999 V2000
  -10.5070    1.7530  -24.6970 O   0  0  0  0  0  0  0  0  0  0  0  0
  -10.1440    0.6350  -24.3710 C   0  0  0  0  0  0  0  0  0  0  0  0
   -8.8400    0.2280  -24.4980 N   0  0  0  0  0  0  0  0  0  0  0  0
   -7.9160    1.0180  -25.2840 C   0  0  0  0  0  0  0  0  0  0  0  0
   -7.3360    2.2640  -24.6340 C   0  0  0  0  0  0  0  0  0  0  0  0
   -6.6490    3.0410  -25.2920 O   0  0  0  0  0  0  0  0  0  0  0  0
   -7.5870    2.4520  -23.3430 N   0  0  0  0  0  0  0  0  0  0  0  0
   -6.9650    3.5170  -22.5790 C   0  0  0  0  0  0  0  0  0  0  0  0
  -11.0560   -0.2930  -23.6870 C   0  0  0  0  0  0  0  0  0  0  0  0
  -12.4130    0.0230  -23.6050 C   0  0  0  0  0  0  0  0  0  0  0  0
  -13.2820   -0.8010  -22.9160 C   0  0  0  0  0  0  0  0  0  0  0  0
  -12.7950   -1.9470  -22.3260 C   0  0  0  0  0  0  0  0  0  0  0  0
  -13.8980   -3.0130  -21.5030 Cl  0  0  0  0  0  0  0  0  0  0  0  0
  -11.4520   -2.2760  -22.3750 C   0  0  0  0  0  0  0  0  0  0  0  0
  -10.5610   -1.4310  -23.0380 C   0  0  0  0  0  0  0  0  0  0  0  0
   -9.0700   -1.6980  -22.9860 C   0  0  1  0  0  0  0  0  0  0  0  0
   -8.4090   -1.1530  -24.2500 C   0  0  0  0  0  0  0  0  0  0  0  0
   -8.4870   -0.9170  -21.8050 C   0  0  0  0  0  0  0  0  0  0  0  0
   -8.9130    0.1920  -21.4790 O   0  0  0  0  0  0  0  0  0  0  0  0
   -7.4530   -1.5190  -21.1820 N   0  0  0  0  0  0  0  0  0  0  0  0
   -6.7210   -1.0220  -20.0860 C   0  0  0  0  0  0  0  0  0  0  0  0
   -5.5970   -0.1740  -20.3470 C   0  0  0  0  0  0  0  0  0  0  0  0
   -5.1270    0.1230  -21.6480 C   0  0  0  0  0  0  0  0  0  0  0  0
   -4.0620    0.9520  -21.7890 C   0  0  0  0  0  0  0  0  0  0  0  0
   -3.6340    1.2450  -23.0450 F   0  0  0  0  0  0  0  0  0  0  0  0
   -3.4000    1.5290  -20.7300 C   0  0  0  0  0  0  0  0  0  0  0  0
   -3.8320    1.2730  -19.4630 C   0  0  0  0  0  0  0  0  0  0  0  0
   -4.9350    0.4140  -19.2320 C   0  0  0  0  0  0  0  0  0  0  0  0
   -5.4260    0.1160  -17.9380 C   0  0  0  0  0  0  0  0  0  0  0  0
   -6.4680   -0.6670  -17.6980 N   0  0  0  0  0  0  0  0  0  0  0  0
   -7.0870   -1.2150  -18.7550 C   0  0  0  0  0  0  0  0  0  0  0  0
  2  1  2  0
  3  2  1  0
  4  3  1  0
  5  4  1  0
  6  5  2  0
  7  5  1  0
  8  7  1  0
  9  2  1  0
 10  9  2  0
 11 10  1  0
 12 11  2  0
 13 12  1  0
 14 12  1  0
 15 14  2  0
 15  9  1  0
 16 15  1  0
 17 16  1  0
 17  3  1  0
 16 18  1  1
 19 18  2  0
 20 18  1  0
 21 20  1  0
 22 21  1  0
 23 22  2  0
 24 23  1  0
 25 24  1  0
 26 24  2  0
 27 26  1  0
 28 22  1  0
 28 27  2  0
 29 28  1  0
 30 29  2  0
 31 30  1  0
 31 21  2  0
M  END
$$$$

     RDKit          3D

 17 19  0  0  0  0  0  0  0  0999 V2000
   -9.3000    0.0470  -21.4850 O   0  0  0  0  0  0  0  0  0  0  0  0
   -9.1150   -1.1480  -21.7150 C   0  0  0  0  0  0  0  0  0  0  0  0
  -10.0710   -1.9550  -22.5650 C   0  0  2  0  0  0  0  0  0  0  0  0
  -10.6210   -1.2650  -23.8070 C   0  0  1  0  0  0  0  0  0  0  0  0
  -10.8800   -2.1030  -25.0630 C   0  0  0  0  0  0  0  0  0  0  0  0
  -12.3110   -2.6400  -25.1640 C   0  0  0  0  0  0  0  0  0  0  0  0
  -12.7010   -3.4080  -23.9160 C   0  0  0  0  0  0  0  0  0  0  0  0
  -12.6200   -2.5330  -22.6600 C   0  0  0  0  0  0  0  0  0  0  0  0
  -11.5130   -1.4650  -22.6210 C   0  0  1  0  0  0  0  0  0  0  0  0
   -8.0700   -1.8470  -21.2280 N   0  0  0  0  0  0  0  0  0  0  0  0
   -7.1250   -1.2860  -20.3250 C   0  0  0  0  0  0  0  0  0  0  0  0
   -5.8890   -0.8050  -20.8150 C   0  0  0  0  0  0  0  0  0  0  0  0
   -5.4920   -0.9640  -22.2640 C   0  0  0  0  0  0  0  0  0  0  0  0
   -7.3890   -1.1420  -18.9600 C   0  0  0  0  0  0  0  0  0  0  0  0
   -6.5450   -0.5750  -18.0930 N   0  0  0  0  0  0  0  0  0  0  0  0
   -5.3830   -0.1200  -18.5740 C   0  0  0  0  0  0  0  0  0  0  0  0
   -5.0270   -0.1980  -19.9040 C   0  0  0  0  0  0  0  0  0  0  0  0
  2  1  2  0
  3  2  1  1
  4  3  1  0
  4  5  1  6
  6  5  1  0
  7  6  1  0
  8  7  1  0
  9  8  1  6
  9  4  1  0
  9  3  1  0
 10  2  1  0
 11 10  1  0
 12 11  2  0
 13 12  1  0
 14 11  1  0
 15 14  2  0
 16 15  1  0
 17 12  1  0
 17 16  2  0
M  END
$$$$

     RDKit          3D

 31 33  0  0  0  0  0  0  0  0999 V2000
   -9.0120    0.0360  -21.3060 O   0  0  0  0  0  0  0  0  0  0  0  0
   -8.0150    0.0140  -22.0160 C   0  0  0  0  0  0  0  0  0  0  0  0
   -7.7870    0.9220  -22.9680 N   0  0  0  0  0  0  0  0  0  0  0  0
   -8.7240    2.0070  -23.2400 C   0  0  2  0  0  0  0  0  0  0  0  0
   -9.5130    1.7400  -24.5150 C   0  0  0  0  0  0  0  0  0  0  0  0
  -10.4530    2.9000  -24.7540 C   0  0  0  0  0  0  0  0  0  0  0  0
   -9.7400    4.1480  -24.8290 O   0  0  0  0  0  0  0  0  0  0  0  0
   -9.0310    4.4250  -23.6060 C   0  0  0  0  0  0  0  0  0  0  0  0
   -8.0110    3.3510  -23.3020 C   0  0  0  0  0  0  0  0  0  0  0  0
   -6.8990   -1.0140  -21.7630 C   0  0  1  0  0  0  0  0  0  0  0  0
   -6.2090   -0.7720  -20.4310 C   0  0  0  0  0  0  0  0  0  0  0  0
   -5.0910    0.0470  -20.3500 C   0  0  0  0  0  0  0  0  0  0  0  0
   -4.6030    0.4370  -19.1200 C   0  0  0  0  0  0  0  0  0  0  0  0
   -5.2530   -0.0130  -17.9870 C   0  0  0  0  0  0  0  0  0  0  0  0
   -6.3260   -0.8110  -18.0230 N   0  0  0  0  0  0  0  0  0  0  0  0
   -6.7700   -1.1840  -19.2280 C   0  0  0  0  0  0  0  0  0  0  0  0
   -7.2620   -2.4190  -22.0910 N   0  0  0  0  0  0  0  0  0  0  0  0
   -6.4220   -3.4570  -21.8050 C   0  0  0  0  0  0  0  0  0  0  0  0
   -5.2360   -3.2790  -21.5940 O   0  0  0  0  0  0  0  0  0  0  0  0
   -7.0060   -4.8380  -21.6980 C   0  0  0  0  0  0  0  0  0  0  0  0
   -6.7570   -5.4200  -20.3180 C   0  0  0  0  0  0  0  0  0  0  0  0
   -8.4870   -2.6200  -22.8120 C   0  0  0  0  0  0  0  0  0  0  0  0
   -8.5000   -2.5600  -24.2040 C   0  0  0  0  0  0  0  0  0  0  0  0
   -9.6860   -2.7240  -24.8980 C   0  0  0  0  0  0  0  0  0  0  0  0
  -10.8880   -2.9470  -24.2310 C   0  0  0  0  0  0  0  0  0  0  0  0
  -12.1990   -3.0600  -25.0250 C   0  0  1  0  0  0  0  0  0  0  0  0
  -12.2210   -4.3300  -25.8960 C   0  0  0  0  0  0  0  0  0  0  0  0
  -13.4250   -3.1070  -24.1140 C   0  0  0  0  0  0  0  0  0  0  0  0
  -12.3520   -1.8460  -25.9420 C   0  0  0  0  0  0  0  0  0  0  0  0
  -10.8620   -3.0230  -22.8390 C   0  0  0  0  0  0  0  0  0  0  0  0
   -9.6820   -2.8630  -22.1320 C   0  0  0  0  0  0  0  0  0  0  0  0
  2  1  2  0
  3  2  1  0
  4  3  1  6
  5  4  1  0
  6  5  1  0
  7  6  1  0
  8  7  1  0
  9  8  1  0
  9  4  1  0
 10  2  1  0
 11 10  1  0
 12 11  2  0
 13 12  1  0
 14 13  2  0
 15 14  1  0
 16 15  2  0
 16 11  1  0
 10 17  1  1
 18 17  1  0
 19 18  2  0
 20 18  1  0
 21 20  1  0
 22 17  1  0
 23 22  2  0
 24 23  1  0
 25 24  2  0
 26 25  1  0
 26 27  1  6
 28 26  1  0
 29 26  1  0
 30 25  1  0
 31 30  2  0
 31 22  1  0
M  END
$$$$

     RDKit          3D

 25 28  0  0  0  0  0  0  0  0999 V2000
  -13.6480   -3.0240  -21.5710 Cl  0  0  0  0  0  0  0  0  0  0  0  0
  -12.4360   -2.2440  -22.5310 C   0  0  0  0  0  0  0  0  0  0  0  0
  -12.8030   -1.3550  -23.5160 C   0  0  0  0  0  0  0  0  0  0  0  0
  -14.1180   -1.1600  -23.7700 F   0  0  0  0  0  0  0  0  0  0  0  0
  -11.0980   -2.4570  -22.2640 C   0  0  0  0  0  0  0  0  0  0  0  0
  -10.1160   -1.7680  -22.9750 C   0  0  0  0  0  0  0  0  0  0  0  0
  -10.5280   -0.8670  -23.9650 C   0  0  0  0  0  0  0  0  0  0  0  0
  -11.8700   -0.6530  -24.2390 C   0  0  0  0  0  0  0  0  0  0  0  0
   -8.6450   -2.0090  -22.7180 C   0  0  1  0  0  0  0  0  0  0  0  0
   -7.8410   -1.6400  -23.9710 C   0  0  0  0  0  0  0  0  0  0  0  0
   -8.2420   -0.2620  -24.4420 C   0  0  0  0  0  0  0  0  0  0  0  0
   -9.6510   -0.1650  -24.7600 O   0  0  0  0  0  0  0  0  0  0  0  0
   -8.2050   -1.1550  -21.5250 C   0  0  0  0  0  0  0  0  0  0  0  0
   -8.7600   -0.0970  -21.2370 O   0  0  0  0  0  0  0  0  0  0  0  0
   -7.1500   -1.6520  -20.8450 N   0  0  0  0  0  0  0  0  0  0  0  0
   -6.4060   -1.0360  -19.8240 C   0  0  0  0  0  0  0  0  0  0  0  0
   -5.3220   -0.1770  -20.1890 C   0  0  0  0  0  0  0  0  0  0  0  0
   -4.8770    0.0100  -21.5240 C   0  0  0  0  0  0  0  0  0  0  0  0
   -3.8270    0.8400  -21.8060 C   0  0  0  0  0  0  0  0  0  0  0  0
   -3.1690    1.5220  -20.7850 C   0  0  0  0  0  0  0  0  0  0  0  0
   -3.5630    1.3760  -19.4830 C   0  0  0  0  0  0  0  0  0  0  0  0
   -4.6420    0.5200  -19.1500 C   0  0  0  0  0  0  0  0  0  0  0  0
   -5.0780    0.3050  -17.8200 C   0  0  0  0  0  0  0  0  0  0  0  0
   -6.0790   -0.4960  -17.4840 N   0  0  0  0  0  0  0  0  0  0  0  0
   -6.7140   -1.1440  -18.4690 C   0  0  0  0  0  0  0  0  0  0  0  0
  2  1  1  0
  3  2  2  0
  4  3  1  0
  5  2  1  0
  6  5  2  0
  7  6  1  0
  8  3  1  0
  8  7  2  0
  9  6  1  0
 10  9  1  0
 11 10  1  0
 12 11  1  0
 12  7  1  0
  9 13  1  1
 14 13  2  0
 15 13  1  0
 16 15  1  0
 17 16  1  0
 18 17  2  0
 19 18  1  0
 20 19  2  0
 21 20  1  0
 22 21  2  0
 22 17  1  0
 23 22  1  0
 24 23  2  0
 25 24  1  0
 25 16  2  0
M  END
$$$$

     RDKit          3D

 26 28  0  0  0  0  0  0  0  0999 V2000
   -7.9720   -1.2540  -22.2060 N   0  0  0  0  0  0  0  0  0  0  0  0
   -4.4020   -1.0670  -21.7560 C   0  0  0  0  0  0  0  0  0  0  0  0
   -8.1030   -1.1830  -24.6710 C   0  0  0  0  0  0  0  0  0  0  0  0
  -10.7890   -1.6260  -22.8050 C   0  0  0  0  0  0  0  0  0  0  0  0
   -7.8950    0.5700  -20.8950 O   0  0  0  0  0  0  0  0  0  0  0  0
   -3.2100    1.2400  -20.7170 C   0  0  0  0  0  0  0  0  0  0  0  0
   -8.5600   -0.5740  -23.3560 C   0  0  1  0  0  0  0  0  0  0  0  0
   -5.7840    0.0290  -18.4570 C   0  0  0  0  0  0  0  0  0  0  0  0
  -12.8580   -0.4020  -23.0510 C   0  0  0  0  0  0  0  0  0  0  0  0
   -5.7780   -1.0970  -19.4860 C   0  0  1  0  0  0  0  0  0  0  0  0
   -7.1860   -1.5050  -19.9370 C   0  0  0  0  0  0  0  0  0  0  0  0
   -3.3970   -0.4000  -22.4170 C   0  0  0  0  0  0  0  0  0  0  0  0
  -10.0730   -0.5310  -23.2830 C   0  0  0  0  0  0  0  0  0  0  0  0
  -12.1660   -1.5390  -22.6910 C   0  0  0  0  0  0  0  0  0  0  0  0
   -2.7870    0.7300  -21.9320 C   0  0  0  0  0  0  0  0  0  0  0  0
   -2.9760   -0.9010  -23.6090 F   0  0  0  0  0  0  0  0  0  0  0  0
   -4.8140   -0.5720  -20.5200 C   0  0  0  0  0  0  0  0  0  0  0  0
  -10.7630    0.6190  -23.6450 C   0  0  0  0  0  0  0  0  0  0  0  0
   -6.0670   -0.0220  -25.0580 C   0  0  0  0  0  0  0  0  0  0  0  0
   -4.8360    0.9290  -18.8150 N   0  0  0  0  0  0  0  0  0  0  0  0
   -6.6900   -1.2610  -24.7360 O   0  0  0  0  0  0  0  0  0  0  0  0
   -6.5470    0.1280  -17.5020 O   0  0  0  0  0  0  0  0  0  0  0  0
   -4.2270    0.5880  -20.0220 C   0  0  0  0  0  0  0  0  0  0  0  0
   -7.7080   -0.6330  -21.0540 C   0  0  0  0  0  0  0  0  0  0  0  0
  -13.1270   -3.0170  -21.9820 Br  0  0  0  0  0  0  0  0  0  0  0  0
  -12.1410    0.6870  -23.5250 C   0  0  0  0  0  0  0  0  0  0  0  0
  7  3  1  6
  7  1  1  0
 10  8  1  0
 10 11  1  6
 12  2  2  0
 13  7  1  0
 13  4  2  0
 14  9  2  0
 14  4  1  0
 15 12  1  0
 15  6  2  0
 16 12  1  0
 17 10  1  0
 17  2  1  0
 18 13  1  0
 20  8  1  0
 21 19  1  0
 21  3  1  0
 22  8  2  0
 23 20  1  0
 23 17  2  0
 23  6  1  0
 24  1  1  0
 24 11  1  0
 24  5  2  0
 25 14  1  0
 26  9  1  0
 26 18  2  0
M  END
$$$$

     RDKit          3D

 28 31  0  0  0  0  0  0  0  0999 V2000
   -8.8660    0.1800  -21.5130 O   0  0  0  0  0  0  0  0  0  0  0  0
   -8.6910   -0.9630  -21.9240 C   0  0  0  0  0  0  0  0  0  0  0  0
   -7.6230   -1.8590  -21.2970 C   0  0  0  0  0  0  0  0  0  0  0  0
   -6.9550   -1.1980  -20.1980 N   0  0  0  0  0  0  0  0  0  0  0  0
   -5.8810   -0.3610  -20.2180 C   0  0  0  0  0  0  0  0  0  0  0  0
   -5.0840    0.1530  -21.2310 C   0  0  0  0  0  0  0  0  0  0  0  0
   -4.0380    0.9890  -20.8660 C   0  0  0  0  0  0  0  0  0  0  0  0
   -3.8040    1.3030  -19.5300 C   0  0  0  0  0  0  0  0  0  0  0  0
   -4.6100    0.7850  -18.5250 C   0  0  0  0  0  0  0  0  0  0  0  0
   -5.6620   -0.0540  -18.8800 C   0  0  0  0  0  0  0  0  0  0  0  0
   -6.6110   -0.7000  -18.1190 N   0  0  0  0  0  0  0  0  0  0  0  0
   -7.3790   -1.3830  -18.9220 N   0  0  0  0  0  0  0  0  0  0  0  0
   -9.4300   -1.4940  -22.9340 N   0  0  0  0  0  0  0  0  0  0  0  0
   -9.2870   -2.9260  -23.3630 C   0  0  0  0  0  0  0  0  0  0  0  0
   -8.3640   -3.1360  -24.5430 C   0  0  0  0  0  0  0  0  0  0  0  0
  -10.6430   -0.7370  -23.3430 C   0  0  1  0  0  0  0  0  0  0  0  0
  -10.3330    0.3950  -24.3130 C   0  0  0  0  0  0  0  0  0  0  0  0
   -9.2910    0.2870  -25.2220 C   0  0  0  0  0  0  0  0  0  0  0  0
   -8.9510    1.3530  -26.0400 C   0  0  0  0  0  0  0  0  0  0  0  0
   -9.6520    2.5360  -25.9620 C   0  0  0  0  0  0  0  0  0  0  0  0
  -10.6990    2.6520  -25.0770 C   0  0  0  0  0  0  0  0  0  0  0  0
  -11.0430    1.5860  -24.2610 C   0  0  0  0  0  0  0  0  0  0  0  0
  -11.8180   -1.6390  -23.7100 C   0  0  0  0  0  0  0  0  0  0  0  0
  -12.8180   -1.8670  -22.7790 C   0  0  0  0  0  0  0  0  0  0  0  0
  -13.8550   -2.7390  -23.0580 C   0  0  0  0  0  0  0  0  0  0  0  0
  -13.9250   -3.3690  -24.2760 C   0  0  0  0  0  0  0  0  0  0  0  0
  -12.9590   -3.1310  -25.2220 C   0  0  0  0  0  0  0  0  0  0  0  0
  -11.9070   -2.2730  -24.9420 C   0  0  0  0  0  0  0  0  0  0  0  0
  2  1  2  0
  3  2  1  0
  4  3  1  0
  5  4  1  0
  6  5  2  0
  7  6  1  0
  8  7  2  0
  9  8  1  0
 10  5  1  0
 10  9  2  0
 11 10  1  0
 12 11  2  0
 12  4  1  0
 13  2  1  0
 14 13  1  0
 15 14  1  0
 16 13  1  6
 17 16  1  0
 18 17  2  0
 19 18  1  0
 20 19  2  0
 21 20  1  0
 22 21  2  0
 22 17  1  0
 23 16  1  0
 24 23  2  0
 25 24  1  0
 26 25  2  0
 27 26  1  0
 28 27  2  0
 28 23  1  0
M  END
$$$$

     RDKit          3D

 27 29  0  0  0  0  0  0  0  0999 V2000
   -2.6630   -0.2390  -24.0410 O   0  0  0  0  0  0  0  0  0  0  0  0
   -2.6780    1.1800  -24.2050 S   0  0  2  0  0  0  0  0  0  0  0  0
   -2.9470    1.7220  -25.4990 O   0  0  0  0  0  0  0  0  0  0  0  0
   -1.1480    1.8270  -23.6420 C   0  0  0  0  0  0  0  0  0  0  0  0
   -3.8450    1.7590  -23.2080 N   0  0  0  0  0  0  0  0  0  0  0  0
   -4.4280    3.0720  -23.5210 C   0  0  0  0  0  0  0  0  0  0  0  0
   -4.0470    1.1680  -21.9010 C   0  0  0  0  0  0  0  0  0  0  0  0
   -5.0510    0.2190  -21.7180 C   0  0  0  0  0  0  0  0  0  0  0  0
   -5.4620   -0.1690  -20.4180 C   0  0  0  0  0  0  0  0  0  0  0  0
   -4.8070    0.4160  -19.2980 C   0  0  0  0  0  0  0  0  0  0  0  0
   -3.7580    1.3400  -19.5220 C   0  0  0  0  0  0  0  0  0  0  0  0
   -3.3890    1.6930  -20.7850 C   0  0  0  0  0  0  0  0  0  0  0  0
   -6.5420   -1.0690  -20.1630 C   0  0  0  0  0  0  0  0  0  0  0  0
   -6.8810   -1.3180  -18.8340 C   0  0  0  0  0  0  0  0  0  0  0  0
   -6.2740   -0.7690  -17.7730 N   0  0  0  0  0  0  0  0  0  0  0  0
   -5.2700    0.0670  -18.0050 C   0  0  0  0  0  0  0  0  0  0  0  0
   -7.2520   -1.5900  -21.2610 N   0  0  0  0  0  0  0  0  0  0  0  0
   -8.3610   -1.0880  -21.8470 C   0  0  0  0  0  0  0  0  0  0  0  0
   -8.8790   -0.0170  -21.5240 O   0  0  0  0  0  0  0  0  0  0  0  0
   -8.9370   -1.9630  -22.9420 C   0  0  0  0  0  0  0  0  0  0  0  0
  -10.4030   -1.7000  -23.1970 C   0  0  0  0  0  0  0  0  0  0  0  0
  -11.3710   -2.3270  -22.4200 C   0  0  0  0  0  0  0  0  0  0  0  0
  -12.6990   -1.9740  -22.5680 C   0  0  0  0  0  0  0  0  0  0  0  0
  -13.8910   -2.7430  -21.5590 Cl  0  0  0  0  0  0  0  0  0  0  0  0
  -13.1020   -1.0250  -23.4840 C   0  0  0  0  0  0  0  0  0  0  0  0
  -12.1440   -0.4340  -24.2900 C   0  0  0  0  0  0  0  0  0  0  0  0
  -10.8060   -0.7680  -24.1460 C   0  0  0  0  0  0  0  0  0  0  0  0
  2  1  2  0
  3  2  2  0
  2  4  1  1
  5  2  1  0
  6  5  1  0
  7  5  1  0
  8  7  2  0
  9  8  1  0
 10  9  2  0
 11 10  1  0
 12  7  1  0
 12 11  2  0
 13  9  1  0
 14 13  2  0
 15 14  1  0
 16 15  2  0
 16 10  1  0
 17 13  1  0
 18 17  1  0
 19 18  2  0
 20 18  1  0
 21 20  1  0
 22 21  2  0
 23 22  1  0
 24 23  1  0
 25 23  2  0
 26 25  1  0
 27 26  2  0
 27 21  1  0
M  END
$$$$

     RDKit          3D

 27 30  0  0  0  0  0  0  0  0999 V2000
  -14.0070   -2.8000  -21.4340 Cl  0  0  0  0  0  0  0  0  0  0  0  0
  -12.7520   -2.0440  -22.3790 C   0  0  0  0  0  0  0  0  0  0  0  0
  -11.4400   -2.4010  -22.1510 C   0  0  0  0  0  0  0  0  0  0  0  0
  -13.0920   -1.0890  -23.3120 C   0  0  0  0  0  0  0  0  0  0  0  0
  -12.0940   -0.4880  -24.0580 C   0  0  0  0  0  0  0  0  0  0  0  0
  -10.7630   -0.8570  -23.8710 C   0  0  0  0  0  0  0  0  0  0  0  0
   -9.7560   -0.4050  -24.7660 N   0  0  0  0  0  0  0  0  0  0  0  0
  -10.0040    0.2550  -25.9340 C   0  0  0  0  0  0  0  0  0  0  0  0
  -10.3980   -0.3500  -26.9210 O   0  0  0  0  0  0  0  0  0  0  0  0
   -9.7710    1.7370  -25.9460 C   0  0  0  0  0  0  0  0  0  0  0  0
  -10.4220   -1.7950  -22.8820 C   0  0  0  0  0  0  0  0  0  0  0  0
   -8.9790   -2.1300  -22.5700 C   0  0  1  0  0  0  0  0  0  0  0  0
   -8.1620   -2.0470  -23.8670 C   0  0  0  0  0  0  0  0  0  0  0  0
   -8.3360   -0.6630  -24.4720 C   0  0  0  0  0  0  0  0  0  0  0  0
   -8.4170   -1.1930  -21.4980 C   0  0  0  0  0  0  0  0  0  0  0  0
   -8.9690   -0.1350  -21.1950 O   0  0  0  0  0  0  0  0  0  0  0  0
   -7.2750   -1.6270  -20.9180 N   0  0  0  0  0  0  0  0  0  0  0  0
   -6.5450   -1.0150  -19.8830 C   0  0  0  0  0  0  0  0  0  0  0  0
   -5.4500   -0.1660  -20.2290 C   0  0  0  0  0  0  0  0  0  0  0  0
   -5.0150    0.0600  -21.5590 C   0  0  0  0  0  0  0  0  0  0  0  0
   -3.9840    0.9140  -21.8270 C   0  0  0  0  0  0  0  0  0  0  0  0
   -3.3320    1.5820  -20.7970 C   0  0  0  0  0  0  0  0  0  0  0  0
   -3.7110    1.3960  -19.4990 C   0  0  0  0  0  0  0  0  0  0  0  0
   -4.7750    0.5180  -19.1780 C   0  0  0  0  0  0  0  0  0  0  0  0
   -5.2320    0.3020  -17.8560 C   0  0  0  0  0  0  0  0  0  0  0  0
   -6.2480   -0.4870  -17.5370 N   0  0  0  0  0  0  0  0  0  0  0  0
   -6.8740   -1.1240  -18.5320 C   0  0  0  0  0  0  0  0  0  0  0  0
  2  1  1  0
  3  2  2  0
  4  2  1  0
  5  4  2  0
  6  5  1  0
  7  6  1  0
  8  7  1  0
  9  8  2  0
 10  8  1  0
 11  3  1  0
 11  6  2  0
 12 11  1  0
 13 12  1  0
 14 13  1  0
 14  7  1  0
 12 15  1  1
 16 15  2  0
 17 15  1  0
 18 17  1  0
 19 18  1  0
 20 19  2  0
 21 20  1  0
 22 21  2  0
 23 22  1  0
 24 19  1  0
 24 23  2  0
 25 24  1  0
 26 25  2  0
 27 26  1  0
 27 18  2  0
M  END
$$$$

     RDKit          3D

 30 33  0  0  0  0  0  0  0  0999 V2000
  -10.4090    0.7460  -24.3840 C   0  0  0  0  0  0  0  0  0  0  0  0
   -9.1060    0.3720  -24.6030 N   0  0  2  0  0  0  0  0  0  0  0  0
   -8.2530    1.2050  -25.4320 C   0  0  0  0  0  0  0  0  0  0  0  0
   -7.5940    2.4020  -24.7690 C   0  0  0  0  0  0  0  0  0  0  0  0
   -6.8920    3.1690  -25.4260 O   0  0  0  0  0  0  0  0  0  0  0  0
   -7.7680    2.5440  -23.4590 N   0  0  0  0  0  0  0  0  0  0  0  0
   -6.9500    3.4390  -22.6600 C   0  0  0  0  0  0  0  0  0  0  0  0
  -11.2430   -0.2010  -23.6310 C   0  0  0  0  0  0  0  0  0  0  0  0
  -12.5990    0.0750  -23.4600 C   0  0  0  0  0  0  0  0  0  0  0  0
  -13.4100   -0.8050  -22.7710 C   0  0  0  0  0  0  0  0  0  0  0  0
  -12.8610   -1.9590  -22.2550 C   0  0  0  0  0  0  0  0  0  0  0  0
  -13.8990   -3.1110  -21.4660 Cl  0  0  0  0  0  0  0  0  0  0  0  0
  -11.5120   -2.2400  -22.3750 C   0  0  0  0  0  0  0  0  0  0  0  0
  -10.6790   -1.3440  -23.0500 C   0  0  0  0  0  0  0  0  0  0  0  0
   -9.1830   -1.5820  -23.1140 C   0  0  1  0  0  0  0  0  0  0  0  0
   -8.6310   -1.0020  -24.4150 C   0  0  0  0  0  0  0  0  0  0  0  0
   -8.5330   -0.8320  -21.9470 C   0  0  0  0  0  0  0  0  0  0  0  0
   -9.0500    0.1620  -21.4380 O   0  0  0  0  0  0  0  0  0  0  0  0
   -7.3400   -1.3330  -21.5360 N   0  0  0  0  0  0  0  0  0  0  0  0
   -6.5460   -0.8780  -20.4530 C   0  0  0  0  0  0  0  0  0  0  0  0
   -5.3590   -0.0930  -20.6490 C   0  0  0  0  0  0  0  0  0  0  0  0
   -4.7300    0.1760  -21.9180 C   0  0  0  0  0  0  0  0  0  0  0  0
   -5.1590   -0.4240  -23.2320 C   0  0  0  0  0  0  0  0  0  0  0  0
   -3.6230    0.9980  -21.9510 C   0  0  0  0  0  0  0  0  0  0  0  0
   -3.0800    1.5640  -20.8120 C   0  0  0  0  0  0  0  0  0  0  0  0
   -3.6260    1.3110  -19.5930 C   0  0  0  0  0  0  0  0  0  0  0  0
   -4.7630    0.4760  -19.4760 C   0  0  0  0  0  0  0  0  0  0  0  0
   -5.3520    0.1800  -18.2190 C   0  0  0  0  0  0  0  0  0  0  0  0
   -6.4260   -0.5720  -18.0520 N   0  0  0  0  0  0  0  0  0  0  0  0
   -6.9990   -1.0790  -19.1500 C   0  0  0  0  0  0  0  0  0  0  0  0
  2  1  1  0
  2  3  1  6
  4  3  1  0
  5  4  2  0
  6  4  1  0
  7  6  1  0
  8  1  1  0
  9  8  2  0
 10  9  1  0
 11 10  2  0
 12 11  1  0
 13 11  1  0
 14 13  2  0
 14  8  1  0
 15 14  1  0
 16 15  1  0
 16  2  1  0
 15 17  1  1
 18 17  2  0
 19 17  1  0
 20 19  1  0
 21 20  1  0
 22 21  2  0
 23 22  1  0
 24 22  1  0
 25 24  2  0
 26 25  1  0
 27 26  2  0
 27 21  1  0
 28 27  1  0
 29 28  2  0
 30 29  1  0
 30 20  2  0
M  CHG  1   2   1
M  END
$$$$

     RDKit          3D

  8  8  0  0  0  0  0  0  0  0999 V2000
   -5.7370   -6.1610  -19.9380 N   0  0  0  0  0  0  0  0  0  0  0  0
   -6.5130   -5.1540  -20.1460 C   0  0  0  0  0  0  0  0  0  0  0  0
   -6.2420   -4.3340  -21.3850 C   0  0  0  0  0  0  0  0  0  0  0  0
   -7.2530   -3.5870  -21.8600 N   0  0  0  0  0  0  0  0  0  0  0  0
   -7.0130   -2.8800  -22.9780 C   0  0  0  0  0  0  0  0  0  0  0  0
   -5.8030   -2.8960  -23.6340 C   0  0  0  0  0  0  0  0  0  0  0  0
   -4.8330   -3.7020  -23.0760 C   0  0  0  0  0  0  0  0  0  0  0  0
   -5.0230   -4.4130  -21.9540 N   0  0  0  0  0  0  0  0  0  0  0  0
  2  1  1  0
  3  2  1  0
  4  3  2  0
  5  4  1  0
  6  5  2  0
  7  6  1  0
  8  3  1  0
  8  7  2  0
M  CHG  1   1   1
M  END
$$$$

     RDKit          3D

 33 37  0  0  0  0  0  0  0  0999 V2000
   -6.8870   -5.0530  -23.5290 C   0  0  0  0  0  0  0  0  0  0  0  0
   -6.9280   -1.2460  -19.0250 C   0  0  0  0  0  0  0  0  0  0  0  0
   -5.0220    0.0500  -18.3280 C   0  0  0  0  0  0  0  0  0  0  0  0
   -7.2230   -1.9610  -21.3390 N   0  0  0  0  0  0  0  0  0  0  0  0
   -6.4320   -1.2440  -20.3370 C   0  0  0  0  0  0  0  0  0  0  0  0
  -11.6710   -2.6860  -23.1990 C   0  0  0  0  0  0  0  0  0  0  0  0
  -12.9670   -2.3110  -23.5600 C   0  0  0  0  0  0  0  0  0  0  0  0
  -13.2990   -0.9710  -23.7210 C   0  0  0  0  0  0  0  0  0  0  0  0
  -12.3360    0.0170  -23.4960 C   0  0  0  0  0  0  0  0  0  0  0  0
  -11.8080    2.3670  -23.3760 C   0  0  0  0  0  0  0  0  0  0  0  0
  -12.4790    3.6910  -23.8250 C   0  0  1  0  0  0  0  0  0  0  0  0
  -11.0280   -0.3360  -23.1300 C   0  0  0  0  0  0  0  0  0  0  0  0
   -6.6660   -3.1040  -21.9120 C   0  0  0  0  0  0  0  0  0  0  0  0
   -5.6470   -7.1480  -23.5640 C   0  0  0  0  0  0  0  0  0  0  0  0
   -5.8720   -7.2520  -24.9420 C   0  0  0  0  0  0  0  0  0  0  0  0
  -10.6990   -1.7000  -22.9870 C   0  0  0  0  0  0  0  0  0  0  0  0
   -9.2760   -2.1730  -22.5910 C   0  0  0  0  0  0  0  0  0  0  0  0
   -6.5960   -6.2620  -25.6170 C   0  0  0  0  0  0  0  0  0  0  0  0
   -7.0990   -5.1670  -24.9110 C   0  0  0  0  0  0  0  0  0  0  0  0
   -8.7430   -3.3220  -23.1860 C   0  0  0  0  0  0  0  0  0  0  0  0
   -8.4970   -1.4900  -21.6610 C   0  0  0  0  0  0  0  0  0  0  0  0
   -6.1450   -6.0470  -22.8560 C   0  0  0  0  0  0  0  0  0  0  0  0
   -5.8630   -5.9880  -21.3520 C   0  0  0  0  0  0  0  0  0  0  0  0
  -14.0060    3.7420  -23.6070 C   0  0  0  0  0  0  0  0  0  0  0  0
  -13.0510    4.5750  -22.7240 C   0  0  0  0  0  0  0  0  0  0  0  0
   -4.5400    0.0510  -19.6420 C   0  0  0  0  0  0  0  0  0  0  0  0
   -5.2370   -0.6050  -20.6600 C   0  0  0  0  0  0  0  0  0  0  0  0
   -7.4640   -3.7890  -22.8350 C   0  0  0  0  0  0  0  0  0  0  0  0
   -6.2210   -0.5950  -18.0130 N   0  0  0  0  0  0  0  0  0  0  0  0
   -5.6480   -5.9570  -20.2270 N   0  0  0  0  0  0  0  0  0  0  0  0
   -8.9650   -0.3290  -21.0480 O   0  0  0  0  0  0  0  0  0  0  0  0
  -12.7460    1.3540  -23.6670 O   0  0  0  0  0  0  0  0  0  0  0  0
  -14.2320   -3.5240  -23.8580 Cl  0  0  0  0  0  0  0  0  0  0  0  0
  5  4  1  0
  5  2  2  0
  7  6  2  0
  8  7  1  0
  9  8  2  0
 11 10  1  1
 12  9  1  0
 13  4  1  0
 15 14  2  0
 16 12  2  0
 16  6  1  0
 17 16  1  0
 18 15  1  0
 19 18  2  0
 19  1  1  0
 20 17  2  0
 21 17  1  0
 21  4  1  0
 22 14  1  0
 22  1  2  0
 23 22  1  0
 24 11  1  0
 25 24  1  0
 25 11  1  0
 26  3  1  0
 27  5  1  0
 27 26  2  0
 28 20  1  0
 28 13  2  0
 28  1  1  0
 29  2  1  0
 29  3  2  0
 30 23  3  0
 31 21  2  0
 32 10  1  0
 32  9  1  0
 33  7  1  0
M  END
$$$$

     RDKit          3D

 24 27  0  0  0  0  0  0  0  0999 V2000
   -5.2240   -3.7790  -20.8890 O   0  0  0  0  0  0  0  0  0  0  0  0
   -5.9380   -2.7970  -21.0170 C   0  0  0  0  0  0  0  0  0  0  0  0
   -5.7870   -1.6390  -20.0720 C   0  0  0  0  0  0  0  0  0  0  0  0
   -4.8520   -0.6000  -20.3360 C   0  0  0  0  0  0  0  0  0  0  0  0
   -4.1940   -0.4170  -21.5790 C   0  0  0  0  0  0  0  0  0  0  0  0
   -3.3000    0.6000  -21.7550 C   0  0  0  0  0  0  0  0  0  0  0  0
   -3.0260    1.4850  -20.7270 C   0  0  0  0  0  0  0  0  0  0  0  0
   -3.6430    1.3620  -19.5160 C   0  0  0  0  0  0  0  0  0  0  0  0
   -4.5690    0.3160  -19.2860 C   0  0  0  0  0  0  0  0  0  0  0  0
   -5.2450    0.1360  -18.0530 C   0  0  0  0  0  0  0  0  0  0  0  0
   -6.1250   -0.8300  -17.8190 N   0  0  0  0  0  0  0  0  0  0  0  0
   -6.3710   -1.6970  -18.8090 C   0  0  0  0  0  0  0  0  0  0  0  0
   -6.8370   -2.6820  -22.0200 N   0  0  0  0  0  0  0  0  0  0  0  0
   -7.7330   -1.5270  -22.1840 C   0  0  0  0  0  0  0  0  0  0  0  0
   -9.1780   -1.9930  -22.2770 C   0  0  0  0  0  0  0  0  0  0  0  0
   -9.3400   -2.9780  -23.3570 N   0  0  0  0  0  0  0  0  0  0  0  0
   -8.4350   -4.1280  -23.2100 C   0  0  0  0  0  0  0  0  0  0  0  0
   -6.9760   -3.6810  -23.0880 C   0  0  0  0  0  0  0  0  0  0  0  0
  -10.6400   -3.2420  -23.8550 C   0  0  0  0  0  0  0  0  0  0  0  0
  -11.7770   -2.7350  -23.2060 C   0  0  0  0  0  0  0  0  0  0  0  0
  -13.0390   -2.9430  -23.7480 C   0  0  0  0  0  0  0  0  0  0  0  0
  -13.1910   -3.6600  -24.9170 C   0  0  0  0  0  0  0  0  0  0  0  0
  -12.0830   -4.1890  -25.5490 C   0  0  0  0  0  0  0  0  0  0  0  0
  -10.8110   -3.9860  -25.0280 C   0  0  0  0  0  0  0  0  0  0  0  0
  2  1  2  0
  3  2  1  0
  4  3  1  0
  5  4  2  0
  6  5  1  0
  7  6  2  0
  8  7  1  0
  9  8  2  0
  9  4  1  0
 10  9  1  0
 11 10  2  0
 12 11  1  0
 12  3  2  0
 13  2  1  0
 14 13  1  0
 15 14  1  0
 16 15  1  0
 17 16  1  0
 18 17  1  0
 18 13  1  0
 19 16  1  0
 20 19  2  0
 21 20  1  0
 22 21  2  0
 23 22  1  0
 24 23  2  0
 24 19  1  0
M  END
$$$$

     RDKit          3D

 18 19  0  0  0  0  0  0  0  0999 V2000
   -8.7650   -0.5930  -21.1270 O   0  0  0  0  0  0  0  0  0  0  0  0
   -7.9610   -1.2940  -21.7370 C   0  0  0  0  0  0  0  0  0  0  0  0
   -8.3170   -1.9000  -23.0860 C   0  0  0  0  0  0  0  0  0  0  0  0
   -9.7500   -1.8390  -23.3390 N   0  0  1  0  0  0  0  0  0  0  0  0
  -10.0460   -2.0310  -24.7760 C   0  0  0  0  0  0  0  0  0  0  0  0
  -11.5500   -1.9550  -25.0470 C   0  0  0  0  0  0  0  0  0  0  0  0
  -10.4580   -2.8440  -22.5240 C   0  0  0  0  0  0  0  0  0  0  0  0
  -11.9620   -2.7720  -22.7400 C   0  0  0  0  0  0  0  0  0  0  0  0
  -12.3190   -2.9590  -24.2030 C   0  0  1  0  0  0  0  0  0  0  0  0
  -13.8130   -2.8930  -24.4430 C   0  0  0  0  0  0  0  0  0  0  0  0
   -6.7110   -1.5650  -21.3090 N   0  0  0  0  0  0  0  0  0  0  0  0
   -6.0990   -0.9550  -20.1880 C   0  0  0  0  0  0  0  0  0  0  0  0
   -4.9570   -0.1640  -20.3750 C   0  0  0  0  0  0  0  0  0  0  0  0
   -4.3200    0.0090  -21.7300 C   0  0  0  0  0  0  0  0  0  0  0  0
   -4.4430    0.4900  -19.2590 C   0  0  0  0  0  0  0  0  0  0  0  0
   -5.0660    0.3410  -18.0320 C   0  0  0  0  0  0  0  0  0  0  0  0
   -6.1530   -0.4160  -17.8390 N   0  0  0  0  0  0  0  0  0  0  0  0
   -6.6520   -1.0510  -18.9060 C   0  0  0  0  0  0  0  0  0  0  0  0
  2  1  2  0
  3  2  1  0
  4  3  1  6
  5  4  1  0
  6  5  1  0
  7  4  1  0
  8  7  1  0
  9  8  1  0
  9  6  1  0
  9 10  1  1
 11  2  1  0
 12 11  1  0
 13 12  2  0
 14 13  1  0
 15 13  1  0
 16 15  2  0
 17 16  1  0
 18 17  2  0
 18 12  1  0
M  CHG  1   4   1
M  END
$$$$

     RDKit          3D

 16 17  0  0  0  0  0  0  0  0999 V2000
   -6.2640   -4.4820  -20.1680 C   0  0  0  0  0  0  0  0  0  0  0  0
   -6.9410   -3.7130  -19.0660 C   0  0  0  0  0  0  0  0  0  0  0  0
   -5.9630   -4.8470  -22.5950 C   0  0  0  0  0  0  0  0  0  0  0  0
   -7.0390   -5.4750  -23.4480 C   0  0  0  0  0  0  0  0  0  0  0  0
   -8.0160   -3.3250  -23.2350 C   0  0  1  0  0  0  0  0  0  0  0  0
   -9.3140   -2.6000  -23.5040 C   0  0  0  0  0  0  0  0  0  0  0  0
   -9.4480   -1.8460  -24.6560 C   0  0  0  0  0  0  0  0  0  0  0  0
  -10.6140   -1.1670  -24.9330 C   0  0  0  0  0  0  0  0  0  0  0  0
  -11.6380   -1.2580  -24.0410 C   0  0  0  0  0  0  0  0  0  0  0  0
  -11.5600   -1.9860  -22.8880 C   0  0  0  0  0  0  0  0  0  0  0  0
  -10.3860   -2.6650  -22.6260 C   0  0  0  0  0  0  0  0  0  0  0  0
   -7.4470   -3.0610  -21.8470 C   0  0  0  0  0  0  0  0  0  0  0  0
  -12.7860   -0.5880  -24.3210 F   0  0  0  0  0  0  0  0  0  0  0  0
   -6.5630   -4.1510  -21.4450 N   0  0  0  0  0  0  0  0  0  0  0  0
   -5.4740   -5.3750  -19.8920 O   0  0  0  0  0  0  0  0  0  0  0  0
   -8.2550   -4.7150  -23.4200 O   0  0  0  0  0  0  0  0  0  0  0  0
  2  1  1  0
  4  3  1  0
  5  6  1  1
  7  6  2  0
  8  7  1  0
  9  8  2  0
 10  9  1  0
 11 10  2  0
 11  6  1  0
 12  5  1  0
 13  9  1  0
 14 12  1  0
 14  3  1  0
 14  1  1  0
 15  1  2  0
 16  4  1  0
 16  5  1  0
M  END
$$$$

     RDKit          3D

 27 30  0  0  0  0  0  0  0  0999 V2000
  -13.9040   -2.9580  -21.3720 Cl  0  0  0  0  0  0  0  0  0  0  0  0
  -12.7420   -2.1150  -22.3580 C   0  0  0  0  0  0  0  0  0  0  0  0
  -11.4000   -2.4240  -22.2310 C   0  0  0  0  0  0  0  0  0  0  0  0
  -13.1770   -1.1230  -23.2070 C   0  0  0  0  0  0  0  0  0  0  0  0
  -12.2470   -0.4410  -23.9720 C   0  0  0  0  0  0  0  0  0  0  0  0
  -10.8860   -0.7370  -23.8870 C   0  0  0  0  0  0  0  0  0  0  0  0
   -9.9460   -0.0980  -24.8850 C   0  0  0  0  0  0  0  0  0  0  0  0
   -8.5260   -0.2580  -24.5400 N   0  0  0  0  0  0  0  0  0  0  0  0
   -7.5540    0.6750  -24.7580 C   0  0  0  0  0  0  0  0  0  0  0  0
   -6.3760    0.3730  -24.6670 O   0  0  0  0  0  0  0  0  0  0  0  0
   -7.9700    2.0850  -25.0920 C   0  0  0  0  0  0  0  0  0  0  0  0
  -10.4560   -1.7160  -22.9780 C   0  0  0  0  0  0  0  0  0  0  0  0
   -8.9710   -1.9510  -22.7830 C   0  0  1  0  0  0  0  0  0  0  0  0
   -8.2080   -1.6080  -24.0630 C   0  0  0  0  0  0  0  0  0  0  0  0
   -8.4250   -1.1470  -21.6010 C   0  0  0  0  0  0  0  0  0  0  0  0
   -8.9540   -0.1020  -21.2200 O   0  0  0  0  0  0  0  0  0  0  0  0
   -7.3170   -1.6600  -21.0230 N   0  0  0  0  0  0  0  0  0  0  0  0
   -6.5840   -1.1150  -19.9490 C   0  0  0  0  0  0  0  0  0  0  0  0
   -5.4960   -0.2290  -20.2390 C   0  0  0  0  0  0  0  0  0  0  0  0
   -5.0270    0.0450  -21.5480 C   0  0  0  0  0  0  0  0  0  0  0  0
   -4.0140    0.9370  -21.7610 C   0  0  0  0  0  0  0  0  0  0  0  0
   -3.4060    1.5880  -20.6950 C   0  0  0  0  0  0  0  0  0  0  0  0
   -3.8150    1.3510  -19.4120 C   0  0  0  0  0  0  0  0  0  0  0  0
   -4.8720    0.4420  -19.1490 C   0  0  0  0  0  0  0  0  0  0  0  0
   -5.3560    0.1810  -17.8450 C   0  0  0  0  0  0  0  0  0  0  0  0
   -6.3550   -0.6470  -17.5730 N   0  0  0  0  0  0  0  0  0  0  0  0
   -6.9370   -1.2740  -18.6070 C   0  0  0  0  0  0  0  0  0  0  0  0
  2  1  1  0
  3  2  2  0
  4  2  1  0
  5  4  2  0
  6  5  1  0
  7  6  1  0
  8  7  1  0
  9  8  1  0
 10  9  2  0
 11  9  1  0
 12  3  1  0
 12  6  2  0
 13 12  1  0
 14 13  1  0
 14  8  1  0
 13 15  1  1
 16 15  2  0
 17 15  1  0
 18 17  1  0
 19 18  1  0
 20 19  2  0
 21 20  1  0
 22 21  2  0
 23 22  1  0
 24 19  1  0
 24 23  2  0
 25 24  1  0
 26 25  2  0
 27 26  1  0
 27 18  2  0
M  END
$$$$

     RDKit          3D

 31 34  0  0  0  0  0  0  0  0999 V2000
  -13.7860   -2.8310  -21.5900 Cl  0  0  0  0  0  0  0  0  0  0  0  0
  -12.6260   -1.9850  -22.5780 C   0  0  0  0  0  0  0  0  0  0  0  0
  -11.2830   -2.2940  -22.4600 C   0  0  0  0  0  0  0  0  0  0  0  0
  -13.0690   -1.0220  -23.4510 C   0  0  0  0  0  0  0  0  0  0  0  0
  -12.1510   -0.3740  -24.2550 C   0  0  0  0  0  0  0  0  0  0  0  0
  -10.7900   -0.6530  -24.1680 C   0  0  0  0  0  0  0  0  0  0  0  0
   -9.8710    0.0880  -25.1130 C   0  0  0  0  0  0  0  0  0  0  0  0
   -8.4480   -0.1250  -24.8240 N   0  0  0  0  0  0  0  0  0  0  0  0
   -7.2670    0.8700  -25.2520 S   0  0  1  0  0  0  0  0  0  0  0  0
   -6.0540    0.3710  -24.7040 O   0  0  0  0  0  0  0  0  0  0  0  0
   -7.3980    1.0710  -26.6530 O   0  0  0  0  0  0  0  0  0  0  0  0
   -7.6460    2.2390  -24.5120 N   0  0  0  0  0  0  0  0  0  0  0  0
   -8.1870    3.3340  -25.3250 C   0  0  0  0  0  0  0  0  0  0  0  0
   -7.4580    2.5470  -23.0820 C   0  0  0  0  0  0  0  0  0  0  0  0
   -6.2600    3.4310  -22.8360 C   0  0  0  0  0  0  0  0  0  0  0  0
  -10.3470   -1.6090  -23.2390 C   0  0  0  0  0  0  0  0  0  0  0  0
   -8.8620   -1.8550  -23.0510 C   0  0  1  0  0  0  0  0  0  0  0  0
   -8.0870   -1.4570  -24.3060 C   0  0  0  0  0  0  0  0  0  0  0  0
   -8.3790   -1.0760  -21.8240 C   0  0  0  0  0  0  0  0  0  0  0  0
   -8.9800   -0.0900  -21.3900 O   0  0  0  0  0  0  0  0  0  0  0  0
   -7.2210   -1.5370  -21.2800 N   0  0  0  0  0  0  0  0  0  0  0  0
   -6.5150   -0.9930  -20.1820 C   0  0  0  0  0  0  0  0  0  0  0  0
   -5.4020   -0.1260  -20.4380 C   0  0  0  0  0  0  0  0  0  0  0  0
   -4.8430    0.0830  -21.7270 C   0  0  0  0  0  0  0  0  0  0  0  0
   -3.7570    0.8910  -21.8980 C   0  0  0  0  0  0  0  0  0  0  0  0
   -3.1780    1.5410  -20.8150 C   0  0  0  0  0  0  0  0  0  0  0  0
   -3.6830    1.3780  -19.5570 C   0  0  0  0  0  0  0  0  0  0  0  0
   -4.7980    0.5350  -19.3300 C   0  0  0  0  0  0  0  0  0  0  0  0
   -5.3210    0.2710  -18.0390 C   0  0  0  0  0  0  0  0  0  0  0  0
   -6.3350   -0.5510  -17.8000 N   0  0  0  0  0  0  0  0  0  0  0  0
   -6.9070   -1.1560  -18.8520 C   0  0  0  0  0  0  0  0  0  0  0  0
  2  1  1  0
  3  2  2  0
  4  2  1  0
  5  4  2  0
  6  5  1  0
  7  6  1  0
  8  7  1  0
  9  8  1  0
 10  9  2  0
 11  9  2  0
  9 12  1  1
 13 12  1  0
 14 12  1  0
 15 14  1  0
 16  3  1  0
 16  6  2  0
 17 16  1  0
 18 17  1  0
 18  8  1  0
 17 19  1  1
 20 19  2  0
 21 19  1  0
 22 21  1  0
 23 22  1  0
 24 23  2  0
 25 24  1  0
 26 25  2  0
 27 26  1  0
 28 27  2  0
 28 23  1  0
 29 28  1  0
 30 29  2  0
 31 30  1  0
 31 22  2  0
M  END
$$$$

     RDKit          3D

 19 20  0  0  0  0  0  0  0  0999 V2000
   -5.4380   -5.9880  -19.8710 O   0  0  0  0  0  0  0  0  0  0  0  0
   -6.1280   -5.1490  -20.4260 C   0  0  0  0  0  0  0  0  0  0  0  0
   -6.7290   -4.0000  -19.6430 C   0  0  0  0  0  0  0  0  0  0  0  0
   -6.3980   -5.2050  -21.7410 N   0  0  0  0  0  0  0  0  0  0  0  0
   -5.9150   -6.3280  -22.5580 C   0  0  0  0  0  0  0  0  0  0  0  0
   -4.9450   -5.8290  -23.6200 C   0  0  0  0  0  0  0  0  0  0  0  0
   -7.0800   -4.1590  -22.5170 C   0  0  0  0  0  0  0  0  0  0  0  0
   -6.1610   -3.6180  -23.6160 C   0  0  0  0  0  0  0  0  0  0  0  0
   -5.6510   -4.7760  -24.4870 C   0  0  1  0  0  0  0  0  0  0  0  0
   -4.7340   -4.2710  -25.5800 C   0  0  0  0  0  0  0  0  0  0  0  0
   -3.5460   -4.0930  -25.3630 O   0  0  0  0  0  0  0  0  0  0  0  0
   -5.2660   -4.0700  -26.8190 N   0  0  0  0  0  0  0  0  0  0  0  0
   -4.4970   -3.3500  -27.8290 C   0  0  0  0  0  0  0  0  0  0  0  0
   -6.5670   -4.5190  -27.2140 C   0  0  0  0  0  0  0  0  0  0  0  0
   -7.6500   -3.6440  -27.1540 C   0  0  0  0  0  0  0  0  0  0  0  0
   -8.9330   -4.1320  -27.3500 C   0  0  0  0  0  0  0  0  0  0  0  0
   -9.1410   -5.4740  -27.6120 C   0  0  0  0  0  0  0  0  0  0  0  0
   -8.0640   -6.3320  -27.7200 C   0  0  0  0  0  0  0  0  0  0  0  0
   -6.7740   -5.8620  -27.5290 C   0  0  0  0  0  0  0  0  0  0  0  0
  2  1  2  0
  3  2  1  0
  4  2  1  0
  5  4  1  0
  6  5  1  0
  7  4  1  0
  8  7  1  0
  9  8  1  0
  9  6  1  0
  9 10  1  6
 11 10  2  0
 12 10  1  0
 13 12  1  0
 14 12  1  0
 15 14  2  0
 16 15  1  0
 17 16  2  0
 18 17  1  0
 19 18  2  0
 19 14  1  0
M  END
$$$$

     RDKit          3D

 27 31  0  0  0  0  0  0  0  0999 V2000
   -8.7400   -0.0090  -21.3460 O   0  0  0  0  0  0  0  0  0  0  0  0
   -8.2110   -1.0390  -21.7160 C   0  0  0  0  0  0  0  0  0  0  0  0
   -8.5600   -1.8350  -22.9740 C   0  0  2  0  0  0  0  0  0  0  0  0
   -7.8400   -1.1630  -24.1670 C   0  0  0  0  0  0  0  0  0  0  0  0
   -8.6570   -0.0300  -24.7520 C   0  0  0  0  0  0  0  0  0  0  0  0
   -9.9370   -0.5000  -25.1990 O   0  0  0  0  0  0  0  0  0  0  0  0
  -10.0780   -1.8820  -23.1930 C   0  0  0  0  0  0  0  0  0  0  0  0
  -10.6660   -1.1840  -24.2580 C   0  0  0  0  0  0  0  0  0  0  0  0
  -12.0410   -1.1450  -24.4300 C   0  0  0  0  0  0  0  0  0  0  0  0
  -12.8570   -1.8020  -23.5310 C   0  0  0  0  0  0  0  0  0  0  0  0
  -10.9170   -2.5620  -22.3090 C   0  0  0  0  0  0  0  0  0  0  0  0
  -12.2890   -2.4970  -22.4870 C   0  0  0  0  0  0  0  0  0  0  0  0
  -13.3290   -3.3110  -21.3520 Cl  0  0  0  0  0  0  0  0  0  0  0  0
   -7.1670   -1.7090  -21.0640 N   0  0  0  0  0  0  0  0  0  0  0  0
   -6.8840   -2.9520  -21.6340 C   0  0  0  0  0  0  0  0  0  0  0  0
   -5.9270   -3.6500  -21.3270 O   0  0  0  0  0  0  0  0  0  0  0  0
   -7.9180   -3.2130  -22.6950 C   0  0  0  0  0  0  0  0  0  0  0  0
   -6.3940   -1.1300  -19.9950 C   0  0  0  0  0  0  0  0  0  0  0  0
   -5.3790   -0.1810  -20.3090 C   0  0  0  0  0  0  0  0  0  0  0  0
   -4.8810    0.0610  -21.6150 C   0  0  0  0  0  0  0  0  0  0  0  0
   -3.9130    1.0020  -21.8390 C   0  0  0  0  0  0  0  0  0  0  0  0
   -3.3930    1.7440  -20.7880 C   0  0  0  0  0  0  0  0  0  0  0  0
   -3.8310    1.5410  -19.5100 C   0  0  0  0  0  0  0  0  0  0  0  0
   -4.8300    0.5740  -19.2340 C   0  0  0  0  0  0  0  0  0  0  0  0
   -5.3220    0.3140  -17.9300 C   0  0  0  0  0  0  0  0  0  0  0  0
   -6.2670   -0.5760  -17.6500 N   0  0  0  0  0  0  0  0  0  0  0  0
   -6.7850   -1.2720  -18.6680 C   0  0  0  0  0  0  0  0  0  0  0  0
  2  1  2  0
  3  2  1  0
  3  4  1  6
  5  4  1  0
  6  5  1  0
  7  3  1  0
  8  7  2  0
  8  6  1  0
  9  8  1  0
 10  9  2  0
 11  7  1  0
 12 11  2  0
 12 10  1  0
 13 12  1  0
 14  2  1  0
 15 14  1  0
 16 15  2  0
 17  3  1  0
 17 15  1  0
 18 14  1  0
 19 18  1  0
 20 19  2  0
 21 20  1  0
 22 21  2  0
 23 22  1  0
 24 23  2  0
 24 19  1  0
 25 24  1  0
 26 25  2  0
 27 26  1  0
 27 18  2  0
M  END
$$$$

     RDKit          3D

 33 37  0  0  0  0  0  0  0  0999 V2000
   -8.3080    5.7180  -22.7560 N   0  0  0  0  0  0  0  0  0  0  0  0
   -7.6880    4.7620  -22.8060 C   0  0  0  0  0  0  0  0  0  0  0  0
   -6.9440    3.5010  -22.8590 C   0  0  2  0  0  0  0  0  0  0  0  0
   -5.7440    3.3880  -21.9420 C   0  0  0  0  0  0  0  0  0  0  0  0
   -5.5300    3.5650  -23.3980 C   0  0  0  0  0  0  0  0  0  0  0  0
   -7.8730    2.3190  -23.1220 C   0  0  0  0  0  0  0  0  0  0  0  0
   -8.1110    1.7130  -24.7830 S   0  0  2  0  0  0  0  0  0  0  0  0
   -6.8560    1.2590  -25.2910 O   0  0  0  0  0  0  0  0  0  0  0  0
   -8.8410    2.7020  -25.5130 O   0  0  0  0  0  0  0  0  0  0  0  0
   -9.0730    0.4090  -24.6470 N   0  0  0  0  0  0  0  0  0  0  0  0
   -8.6000   -0.9770  -24.4740 C   0  0  0  0  0  0  0  0  0  0  0  0
  -10.5000    0.5390  -24.9660 C   0  0  0  0  0  0  0  0  0  0  0  0
  -11.3240   -0.2940  -24.0130 C   0  0  0  0  0  0  0  0  0  0  0  0
  -10.7770   -1.3570  -23.2740 C   0  0  0  0  0  0  0  0  0  0  0  0
  -11.6180   -2.1500  -22.4890 C   0  0  0  0  0  0  0  0  0  0  0  0
  -12.9660   -1.8460  -22.4100 C   0  0  0  0  0  0  0  0  0  0  0  0
  -14.0000   -2.8200  -21.4040 Cl  0  0  0  0  0  0  0  0  0  0  0  0
  -13.5040   -0.7800  -23.0890 C   0  0  0  0  0  0  0  0  0  0  0  0
  -12.6840   -0.0160  -23.8950 C   0  0  0  0  0  0  0  0  0  0  0  0
   -9.2720   -1.5740  -23.2350 C   0  0  2  0  0  0  0  0  0  0  0  0
   -8.6860   -0.9130  -21.9850 C   0  0  0  0  0  0  0  0  0  0  0  0
   -9.2110    0.0680  -21.4630 O   0  0  0  0  0  0  0  0  0  0  0  0
   -7.5380   -1.4770  -21.5240 N   0  0  0  0  0  0  0  0  0  0  0  0
   -6.8280   -1.0490  -20.3670 C   0  0  0  0  0  0  0  0  0  0  0  0
   -7.3630   -1.2670  -19.0980 C   0  0  0  0  0  0  0  0  0  0  0  0
   -6.8310   -0.7820  -17.9670 N   0  0  0  0  0  0  0  0  0  0  0  0
   -5.7190   -0.0460  -18.0640 C   0  0  0  0  0  0  0  0  0  0  0  0
   -5.6430   -0.3000  -20.4380 C   0  0  0  0  0  0  0  0  0  0  0  0
   -4.8280    0.0640  -21.4770 N   0  0  0  0  0  0  0  0  0  0  0  0
   -4.9400   -0.2270  -22.9000 C   0  0  0  0  0  0  0  0  0  0  0  0
   -5.0600    0.2370  -19.2680 C   0  0  0  0  0  0  0  0  0  0  0  0
   -3.9060    0.9160  -19.7330 C   0  0  0  0  0  0  0  0  0  0  0  0
   -3.7690    0.8050  -21.0380 N   0  0  0  0  0  0  0  0  0  0  0  0
  2  1  3  0
  3  2  1  1
  4  3  1  0
  5  4  1  0
  5  3  1  0
  6  3  1  0
  7  6  1  1
  8  7  2  0
  9  7  2  0
 10  7  1  0
 11 10  1  0
 12 10  1  0
 13 12  1  0
 14 13  2  0
 15 14  1  0
 16 15  2  0
 17 16  1  0
 18 16  1  0
 19 18  2  0
 19 13  1  0
 20 14  1  0
 20 11  1  0
 20 21  1  1
 22 21  2  0
 23 21  1  0
 24 23  1  0
 25 24  2  0
 26 25  1  0
 27 26  2  0
 28 24  1  0
 29 28  1  0
 30 29  1  0
 31 28  2  0
 31 27  1  0
 32 31  1  0
 33 32  2  0
 33 29  1  0
M  END
$$$$

     RDKit          3D

 22 24  0  0  0  0  0  0  0  0999 V2000
   -4.9540   -0.1200  -21.6320 N   0  0  0  0  0  0  0  0  0  0  0  0
   -7.3670   -1.5030  -21.1970 N   0  0  0  0  0  0  0  0  0  0  0  0
   -3.7020    0.1900  -22.0730 C   0  0  0  0  0  0  0  0  0  0  0  0
  -12.0360   -0.3650  -24.1620 C   0  0  0  0  0  0  0  0  0  0  0  0
   -8.8690    0.1990  -21.3320 O   0  0  0  0  0  0  0  0  0  0  0  0
   -8.9910   -1.5580  -22.9920 C   0  0  1  0  0  0  0  0  0  0  0  0
   -5.4390   -0.2840  -20.3090 C   0  0  0  0  0  0  0  0  0  0  0  0
   -6.6260   -1.0050  -20.1000 C   0  0  0  0  0  0  0  0  0  0  0  0
   -7.1110   -1.1150  -18.8010 C   0  0  0  0  0  0  0  0  0  0  0  0
   -5.3930    0.1560  -17.9740 C   0  0  0  0  0  0  0  0  0  0  0  0
  -10.7340   -0.7750  -23.8970 C   0  0  0  0  0  0  0  0  0  0  0  0
  -12.8090   -1.8790  -22.5000 C   0  0  0  0  0  0  0  0  0  0  0  0
  -13.8460   -2.4750  -21.8550 F   0  0  0  0  0  0  0  0  0  0  0  0
   -9.2580   -0.6300  -24.2300 C   0  0  0  0  0  0  0  0  0  0  0  0
  -13.0900   -0.9080  -23.4450 C   0  0  0  0  0  0  0  0  0  0  0  0
  -11.5330   -2.3090  -22.2090 C   0  0  0  0  0  0  0  0  0  0  0  0
   -3.5500    0.2290  -23.5660 C   0  0  0  0  0  0  0  0  0  0  0  0
   -6.5170   -0.5390  -17.7510 N   0  0  0  0  0  0  0  0  0  0  0  0
   -2.7560    0.4200  -21.3160 O   0  0  0  0  0  0  0  0  0  0  0  0
   -8.4150   -0.8620  -21.7590 C   0  0  0  0  0  0  0  0  0  0  0  0
   -4.8080    0.3060  -19.2160 C   0  0  0  0  0  0  0  0  0  0  0  0
  -10.5050   -1.7060  -22.9250 C   0  0  0  0  0  0  0  0  0  0  0  0
  3  1  1  0
  7  1  1  0
  8  2  1  0
  8  7  2  0
  9  8  1  0
 11  4  2  0
 13 12  1  0
 14 11  1  0
 14  6  1  0
 15 12  2  0
 15  4  1  0
 16 12  1  0
 17  3  1  0
 18  9  2  0
 18 10  1  0
 19  3  2  0
  6 20  1  1
 20  5  2  0
 20  2  1  0
 21 10  2  0
 21  7  1  0
 22 16  2  0
 22 11  1  0
 22  6  1  0
M  END
$$$$

     RDKit          3D

 30 33  0  0  0  0  0  0  0  0999 V2000
  -13.7470   -2.7810  -21.6460 Cl  0  0  0  0  0  0  0  0  0  0  0  0
  -12.5550   -1.9550  -22.6070 C   0  0  0  0  0  0  0  0  0  0  0  0
  -11.2220   -2.2840  -22.4580 C   0  0  0  0  0  0  0  0  0  0  0  0
  -12.9680   -1.0150  -23.5210 C   0  0  0  0  0  0  0  0  0  0  0  0
  -12.0300   -0.4230  -24.3430 C   0  0  0  0  0  0  0  0  0  0  0  0
  -10.6770   -0.7410  -24.2370 C   0  0  0  0  0  0  0  0  0  0  0  0
   -9.7300   -0.1120  -25.2310 C   0  0  0  0  0  0  0  0  0  0  0  0
   -8.3270   -0.2460  -24.8160 N   0  0  0  0  0  0  0  0  0  0  0  0
   -7.2530    0.9120  -25.0930 S   0  0  1  0  0  0  0  0  0  0  0  0
   -5.9800    0.4230  -24.6710 O   0  0  0  0  0  0  0  0  0  0  0  0
   -7.4340    1.3150  -26.4510 O   0  0  0  0  0  0  0  0  0  0  0  0
   -7.7700    2.1600  -24.1880 N   0  0  0  0  0  0  0  0  0  0  0  0
   -7.1380    2.4820  -22.9030 C   0  0  0  0  0  0  0  0  0  0  0  0
   -6.4140    3.7910  -22.9640 C   0  0  0  0  0  0  0  0  0  0  0  0
  -10.2630   -1.6600  -23.2590 C   0  0  0  0  0  0  0  0  0  0  0  0
   -8.7870   -1.9260  -23.0270 C   0  0  1  0  0  0  0  0  0  0  0  0
   -7.9680   -1.5660  -24.2660 C   0  0  0  0  0  0  0  0  0  0  0  0
   -8.3190   -1.1270  -21.8070 C   0  0  0  0  0  0  0  0  0  0  0  0
   -8.9260   -0.1370  -21.3990 O   0  0  0  0  0  0  0  0  0  0  0  0
   -7.1780   -1.5890  -21.2330 N   0  0  0  0  0  0  0  0  0  0  0  0
   -6.4940   -1.0540  -20.1160 C   0  0  0  0  0  0  0  0  0  0  0  0
   -5.3480   -0.2260  -20.3440 C   0  0  0  0  0  0  0  0  0  0  0  0
   -4.7720   -0.0040  -21.6230 C   0  0  0  0  0  0  0  0  0  0  0  0
   -3.7020    0.8320  -21.7800 C   0  0  0  0  0  0  0  0  0  0  0  0
   -3.1550    1.4930  -20.6850 C   0  0  0  0  0  0  0  0  0  0  0  0
   -3.6600    1.3000  -19.4320 C   0  0  0  0  0  0  0  0  0  0  0  0
   -4.7620    0.4320  -19.2240 C   0  0  0  0  0  0  0  0  0  0  0  0
   -5.3320    0.1920  -17.9460 C   0  0  0  0  0  0  0  0  0  0  0  0
   -6.3810   -0.5960  -17.7320 N   0  0  0  0  0  0  0  0  0  0  0  0
   -6.9370   -1.1900  -18.7990 C   0  0  0  0  0  0  0  0  0  0  0  0
  2  1  1  0
  3  2  2  0
  4  2  1  0
  5  4  2  0
  6  5  1  0
  7  6  1  0
  8  7  1  0
  9  8  1  0
 10  9  2  0
 11  9  2  0
  9 12  1  1
 13 12  1  0
 14 13  1  0
 15  3  1  0
 15  6  2  0
 16 15  1  0
 17 16  1  0
 17  8  1  0
 16 18  1  1
 19 18  2  0
 20 18  1  0
 21 20  1  0
 22 21  1  0
 23 22  2  0
 24 23  1  0
 25 24  2  0
 26 25  1  0
 27 26  2  0
 27 22  1  0
 28 27  1  0
 29 28  2  0
 30 29  1  0
 30 21  2  0
M  END
$$$$

     RDKit          3D

 21 23  0  0  0  0  0  0  0  0999 V2000
   -6.6890   -3.9770  -21.5950 N   0  0  0  0  0  0  0  0  0  0  0  0
   -6.3430   -4.3110  -20.3320 C   0  0  0  0  0  0  0  0  0  0  0  0
   -8.2330   -4.3980  -23.9420 C   0  0  0  0  0  0  0  0  0  0  0  0
  -11.9510   -2.0670  -22.5760 C   0  0  0  0  0  0  0  0  0  0  0  0
   -7.6480   -2.9280  -21.9710 C   0  0  0  0  0  0  0  0  0  0  0  0
  -11.2140   -0.8280  -24.4960 C   0  0  0  0  0  0  0  0  0  0  0  0
   -7.1020   -5.1760  -23.6960 C   0  0  0  0  0  0  0  0  0  0  0  0
   -9.9820   -1.4580  -24.4270 C   0  0  0  0  0  0  0  0  0  0  0  0
   -9.7080   -2.3780  -23.4210 C   0  0  0  0  0  0  0  0  0  0  0  0
   -9.0540   -6.0890  -25.4610 C   0  0  0  0  0  0  0  0  0  0  0  0
  -10.7020   -2.6820  -22.4940 C   0  0  0  0  0  0  0  0  0  0  0  0
   -6.0600   -4.6310  -22.7540 C   0  0  0  0  0  0  0  0  0  0  0  0
  -13.0260   -2.5080  -21.7250 C   0  0  0  0  0  0  0  0  0  0  0  0
   -9.2100   -4.8710  -24.8190 C   0  0  0  0  0  0  0  0  0  0  0  0
   -7.9340   -6.8510  -25.2250 C   0  0  0  0  0  0  0  0  0  0  0  0
   -6.9260   -3.4780  -19.2070 C   0  0  0  0  0  0  0  0  0  0  0  0
  -13.9020   -2.8470  -21.0750 N   0  0  0  0  0  0  0  0  0  0  0  0
   -5.5690   -5.2220  -20.0920 O   0  0  0  0  0  0  0  0  0  0  0  0
  -12.1950   -1.1190  -23.5660 C   0  0  0  0  0  0  0  0  0  0  0  0
   -8.3240   -3.0110  -23.3500 C   0  0  2  0  0  0  0  0  0  0  0  0
   -6.9630   -6.4030  -24.3400 C   0  0  0  0  0  0  0  0  0  0  0  0
  2  1  1  0
  5  1  1  0
  7  3  2  0
  8  6  1  0
  9  8  2  0
 11  4  2  0
 11  9  1  0
 12  7  1  0
 12  1  1  0
 13  4  1  0
 14 10  2  0
 14  3  1  0
 15 10  1  0
 16  2  1  0
 17 13  3  0
 18  2  2  0
 19  6  2  0
 19  4  1  0
 20  9  1  1
 20  5  1  0
 20  3  1  0
 21 15  2  0
 21  7  1  0
M  END
$$$$

     RDKit          3D

 19 20  0  0  0  0  0  0  0  0999 V2000
  -12.7830   -2.9120  -22.3560 F   0  0  0  0  0  0  0  0  0  0  0  0
  -12.5830   -2.8900  -23.6950 C   0  0  0  0  0  0  0  0  0  0  0  0
  -13.3560   -3.7040  -24.4900 C   0  0  0  0  0  0  0  0  0  0  0  0
  -13.1820   -3.6450  -25.8620 C   0  0  0  0  0  0  0  0  0  0  0  0
  -12.2630   -2.7720  -26.4040 C   0  0  0  0  0  0  0  0  0  0  0  0
  -11.4910   -1.9660  -25.5760 C   0  0  0  0  0  0  0  0  0  0  0  0
  -11.6240   -2.0280  -24.1890 C   0  0  0  0  0  0  0  0  0  0  0  0
  -10.7160   -1.1940  -23.3090 C   0  0  0  0  0  0  0  0  0  0  0  0
   -9.5580   -1.9910  -22.6650 C   0  0  0  0  0  0  0  0  0  0  0  0
   -8.7500   -1.1470  -21.7020 C   0  0  0  0  0  0  0  0  0  0  0  0
   -9.1350   -0.0390  -21.3400 O   0  0  0  0  0  0  0  0  0  0  0  0
   -7.6080   -1.7080  -21.2630 N   0  0  0  0  0  0  0  0  0  0  0  0
   -6.7990   -1.1000  -20.2620 C   0  0  0  0  0  0  0  0  0  0  0  0
   -5.6200   -0.4110  -20.6290 C   0  0  0  0  0  0  0  0  0  0  0  0
   -5.2100   -0.2410  -22.0690 C   0  0  0  0  0  0  0  0  0  0  0  0
   -7.1520   -1.1300  -18.9120 C   0  0  0  0  0  0  0  0  0  0  0  0
   -6.4330   -0.5540  -17.9420 N   0  0  0  0  0  0  0  0  0  0  0  0
   -5.3070    0.0710  -18.3020 C   0  0  0  0  0  0  0  0  0  0  0  0
   -4.8700    0.1660  -19.6080 C   0  0  0  0  0  0  0  0  0  0  0  0
  2  1  1  0
  3  2  2  0
  4  3  1  0
  5  4  2  0
  6  5  1  0
  7  6  2  0
  7  2  1  0
  8  7  1  0
  9  8  1  0
 10  9  1  0
 11 10  2  0
 12 10  1  0
 13 12  1  0
 14 13  2  0
 15 14  1  0
 16 13  1  0
 17 16  2  0
 18 17  1  0
 19 14  1  0
 19 18  2  0
M  END
$$$$

     RDKit          3D

 24 26  0  0  0  0  0  0  0  0999 V2000
  -13.8750   -2.7350  -21.7500 Cl  0  0  0  0  0  0  0  0  0  0  0  0
  -12.6020   -1.9880  -22.6780 C   0  0  0  0  0  0  0  0  0  0  0  0
  -12.9240   -1.0200  -23.6060 C   0  0  0  0  0  0  0  0  0  0  0  0
  -11.9040   -0.4590  -24.3600 C   0  0  0  0  0  0  0  0  0  0  0  0
  -10.5880   -0.8380  -24.1460 C   0  0  0  0  0  0  0  0  0  0  0  0
  -11.2980   -2.3900  -22.4660 C   0  0  0  0  0  0  0  0  0  0  0  0
  -10.2680   -1.7910  -23.1850 C   0  0  0  0  0  0  0  0  0  0  0  0
   -8.8250   -2.0850  -22.8350 C   0  0  0  0  0  0  0  0  0  0  0  0
   -8.3230   -1.2090  -21.7030 C   0  0  0  0  0  0  0  0  0  0  0  0
   -8.9200   -0.1870  -21.3560 O   0  0  0  0  0  0  0  0  0  0  0  0
   -7.1790   -1.6380  -21.1220 N   0  0  0  0  0  0  0  0  0  0  0  0
   -6.4900   -1.0520  -20.0400 C   0  0  0  0  0  0  0  0  0  0  0  0
   -6.9120   -1.1450  -18.7150 C   0  0  0  0  0  0  0  0  0  0  0  0
   -6.3200   -0.5400  -17.6750 N   0  0  0  0  0  0  0  0  0  0  0  0
   -5.2560    0.2090  -17.9290 C   0  0  0  0  0  0  0  0  0  0  0  0
   -5.3370   -0.2510  -20.3130 C   0  0  0  0  0  0  0  0  0  0  0  0
   -4.7090    0.4080  -19.2210 C   0  0  0  0  0  0  0  0  0  0  0  0
   -3.5890    1.2340  -19.4680 C   0  0  0  0  0  0  0  0  0  0  0  0
   -3.0980    1.3960  -20.7290 C   0  0  0  0  0  0  0  0  0  0  0  0
   -4.8010   -0.0630  -21.6110 C   0  0  0  0  0  0  0  0  0  0  0  0
   -3.6790    0.7500  -21.8360 C   0  0  0  0  0  0  0  0  0  0  0  0
   -3.1370    0.8840  -23.1030 N   0  0  0  0  0  0  0  0  0  0  0  0
   -3.6070    0.0740  -24.2200 C   0  0  0  0  0  0  0  0  0  0  0  0
   -2.2990    2.0270  -23.4470 C   0  0  0  0  0  0  0  0  0  0  0  0
  2  1  1  0
  3  2  2  0
  4  3  1  0
  5  4  2  0
  6  2  1  0
  7  6  2  0
  7  5  1  0
  8  7  1  0
  9  8  1  0
 10  9  2  0
 11  9  1  0
 12 11  1  0
 13 12  2  0
 14 13  1  0
 15 14  2  0
 16 12  1  0
 17 16  2  0
 17 15  1  0
 18 17  1  0
 19 18  2  0
 20 16  1  0
 21 20  2  0
 21 19  1  0
 22 21  1  0
 23 22  1  0
 24 22  1  0
M  END
$$$$

     RDKit          3D

 23 24  0  0  0  0  0  0  0  0999 V2000
   -6.1200   -6.3960  -22.0320 S   0  0  2  0  0  0  0  0  0  0  0  0
   -7.0550   -5.1030  -22.2990 N   0  0  0  0  0  0  0  0  0  0  0  0
   -6.4380   -0.4700  -17.8330 N   0  0  0  0  0  0  0  0  0  0  0  0
   -7.2680   -4.6180  -23.6720 C   0  0  0  0  0  0  0  0  0  0  0  0
  -11.5120   -2.4930  -22.2940 C   0  0  0  0  0  0  0  0  0  0  0  0
   -5.7600   -6.3690  -20.6460 O   0  0  0  0  0  0  0  0  0  0  0  0
   -5.3240    0.0740  -18.3400 C   0  0  0  0  0  0  0  0  0  0  0  0
   -8.5740   -3.8590  -23.8890 C   0  0  0  0  0  0  0  0  0  0  0  0
   -5.8870   -0.5780  -20.5580 C   0  0  0  0  0  0  0  0  0  0  0  0
   -7.0480   -1.1620  -20.0590 C   0  0  0  0  0  0  0  0  0  0  0  0
   -7.9950   -2.0510  -22.2070 C   0  0  0  0  0  0  0  0  0  0  0  0
  -10.3480   -2.2670  -23.0220 C   0  0  0  0  0  0  0  0  0  0  0  0
  -12.6760   -0.8250  -23.5680 C   0  0  0  0  0  0  0  0  0  0  0  0
   -7.2750   -1.0770  -18.6850 C   0  0  0  0  0  0  0  0  0  0  0  0
  -12.6680   -1.7750  -22.5630 C   0  0  0  0  0  0  0  0  0  0  0  0
  -11.5300   -0.6000  -24.3070 C   0  0  0  0  0  0  0  0  0  0  0  0
   -4.6620   -6.1960  -22.9830 C   0  0  0  0  0  0  0  0  0  0  0  0
   -7.9930   -1.8490  -20.8650 N   0  0  0  0  0  0  0  0  0  0  0  0
   -6.8290   -7.5300  -22.5380 O   0  0  0  0  0  0  0  0  0  0  0  0
   -7.2040   -1.5120  -22.9790 O   0  0  0  0  0  0  0  0  0  0  0  0
   -5.0090    0.0460  -19.6870 C   0  0  0  0  0  0  0  0  0  0  0  0
   -9.0680   -3.0260  -22.6940 C   0  0  1  0  0  0  0  0  0  0  0  0
  -10.3730   -1.3200  -24.0380 C   0  0  0  0  0  0  0  0  0  0  0  0
  2  1  1  0
  4  2  1  0
  6  1  2  0
  7  3  2  0
  8  4  1  0
 10  9  1  0
 12  5  2  0
 14 10  2  0
 14  3  1  0
 15 13  2  0
 15  5  1  0
 16 13  1  0
  1 17  1  6
 18 11  1  0
 18 10  1  0
 19  1  2  0
 20 11  2  0
 21  9  2  0
 21  7  1  0
 22 12  1  0
 22 11  1  0
 22  8  1  6
 23 16  2  0
 23 12  1  0
M  END
$$$$

     RDKit          3D

 27 30  0  0  0  0  0  0  0  0999 V2000
   -3.6860    1.3470  -23.2080 F   0  0  0  0  0  0  0  0  0  0  0  0
   -4.1370    1.0450  -21.9640 C   0  0  0  0  0  0  0  0  0  0  0  0
   -3.4130    1.5000  -20.8880 C   0  0  0  0  0  0  0  0  0  0  0  0
   -3.8260    1.1810  -19.6310 C   0  0  0  0  0  0  0  0  0  0  0  0
   -5.2620    0.2920  -21.8500 C   0  0  0  0  0  0  0  0  0  0  0  0
   -5.7200   -0.0670  -20.5570 C   0  0  0  0  0  0  0  0  0  0  0  0
   -4.9870    0.3950  -19.4270 C   0  0  0  0  0  0  0  0  0  0  0  0
   -5.4690    0.0530  -18.1410 C   0  0  0  0  0  0  0  0  0  0  0  0
   -6.5640   -0.6610  -17.9210 N   0  0  0  0  0  0  0  0  0  0  0  0
   -7.2420   -1.0980  -18.9890 C   0  0  0  0  0  0  0  0  0  0  0  0
   -6.8920   -0.8530  -20.3200 C   0  0  0  0  0  0  0  0  0  0  0  0
   -7.6660   -1.2830  -21.4230 N   0  0  0  0  0  0  0  0  0  0  0  0
   -8.8410   -0.7470  -21.8320 C   0  0  0  0  0  0  0  0  0  0  0  0
   -9.3680    0.2150  -21.2870 O   0  0  0  0  0  0  0  0  0  0  0  0
   -9.5020   -1.3710  -23.1030 C   0  0  1  0  0  0  0  0  0  0  0  0
   -8.9660   -2.6850  -23.2640 O   0  0  0  0  0  0  0  0  0  0  0  0
   -9.6300   -3.7650  -22.5930 C   0  0  0  0  0  0  0  0  0  0  0  0
  -11.0170   -1.3030  -23.1180 C   0  0  0  0  0  0  0  0  0  0  0  0
  -11.7770   -1.8810  -22.1030 C   0  0  0  0  0  0  0  0  0  0  0  0
  -13.1480   -1.7010  -22.0960 C   0  0  0  0  0  0  0  0  0  0  0  0
  -14.1060   -2.5870  -20.9450 Cl  0  0  0  0  0  0  0  0  0  0  0  0
  -13.7830   -0.9070  -23.0260 C   0  0  0  0  0  0  0  0  0  0  0  0
  -13.0400   -0.3190  -24.0350 C   0  0  0  0  0  0  0  0  0  0  0  0
  -11.6730   -0.5410  -24.0860 C   0  0  0  0  0  0  0  0  0  0  0  0
  -11.0220   -0.0120  -25.1730 O   0  0  0  0  0  0  0  0  0  0  0  0
   -9.6790    0.4200  -24.8920 C   0  0  0  0  0  0  0  0  0  0  0  0
   -8.8260   -0.6840  -24.3000 C   0  0  0  0  0  0  0  0  0  0  0  0
  2  1  1  0
  3  2  2  0
  4  3  1  0
  5  2  1  0
  6  5  2  0
  7  6  1  0
  7  4  2  0
  8  7  1  0
  9  8  2  0
 10  9  1  0
 11 10  2  0
 11  6  1  0
 12 11  1  0
 13 12  1  0
 14 13  2  0
 15 13  1  0
 15 16  1  6
 17 16  1  0
 18 15  1  0
 19 18  2  0
 20 19  1  0
 21 20  1  0
 22 20  2  0
 23 22  1  0
 24 23  2  0
 24 18  1  0
 25 24  1  0
 26 25  1  0
 27 26  1  0
 27 15  1  0
M  END
$$$$

     RDKit          3D

 20 21  0  0  0  0  0  0  0  0999 V2000
  -13.5340   -2.8990  -21.5660 Cl  0  0  0  0  0  0  0  0  0  0  0  0
  -12.4180   -2.0030  -22.5520 C   0  0  0  0  0  0  0  0  0  0  0  0
  -12.9060   -1.1090  -23.4790 C   0  0  0  0  0  0  0  0  0  0  0  0
  -12.0120   -0.4890  -24.3390 C   0  0  0  0  0  0  0  0  0  0  0  0
  -10.6530   -0.7410  -24.2340 C   0  0  0  0  0  0  0  0  0  0  0  0
  -11.0670   -2.2540  -22.4250 C   0  0  0  0  0  0  0  0  0  0  0  0
  -10.1640   -1.5990  -23.2570 C   0  0  0  0  0  0  0  0  0  0  0  0
   -8.6750   -1.7120  -22.9850 C   0  0  2  0  0  0  0  0  0  0  0  0
   -8.1950   -3.1710  -22.9350 C   0  0  0  0  0  0  0  0  0  0  0  0
   -8.2200   -3.8400  -24.2920 C   0  0  0  0  0  0  0  0  0  0  0  0
   -8.3450   -0.8990  -21.7290 C   0  0  0  0  0  0  0  0  0  0  0  0
   -8.8660    0.1900  -21.5090 O   0  0  0  0  0  0  0  0  0  0  0  0
   -7.4670   -1.4690  -20.8720 N   0  0  0  0  0  0  0  0  0  0  0  0
   -6.4070   -1.0310  -20.0560 C   0  0  0  0  0  0  0  0  0  0  0  0
   -5.4100   -0.1410  -20.5110 C   0  0  0  0  0  0  0  0  0  0  0  0
   -5.0340   -0.0310  -21.9680 C   0  0  0  0  0  0  0  0  0  0  0  0
   -4.6970    0.5630  -19.5460 C   0  0  0  0  0  0  0  0  0  0  0  0
   -4.9240    0.4260  -18.2330 N   0  0  0  0  0  0  0  0  0  0  0  0
   -5.8830   -0.4450  -17.8010 N   0  0  0  0  0  0  0  0  0  0  0  0
   -6.5640   -1.1490  -18.6790 C   0  0  0  0  0  0  0  0  0  0  0  0
  2  1  1  0
  3  2  2  0
  4  3  1  0
  5  4  2  0
  6  2  1  0
  7  6  2  0
  7  5  1  0
  8  7  1  0
  8  9  1  1
 10  9  1  0
 11  8  1  0
 12 11  2  0
 13 11  1  0
 14 13  1  0
 15 14  2  0
 16 15  1  0
 17 15  1  0
 18 17  2  0
 19 18  1  0
 20 19  2  0
 20 14  1  0
M  END
$$$$

     RDKit          3D

 22 24  0  0  0  0  0  0  0  0999 V2000
  -11.3530    2.1440  -24.8130 O   0  0  0  0  0  0  0  0  0  0  0  0
  -11.3580    2.5720  -23.6700 C   0  0  0  0  0  0  0  0  0  0  0  0
  -10.7650    1.9500  -22.6290 N   0  0  0  0  0  0  0  0  0  0  0  0
  -10.2120    0.6650  -22.5630 C   0  0  0  0  0  0  0  0  0  0  0  0
   -9.5100    0.4450  -21.4400 N   0  0  0  0  0  0  0  0  0  0  0  0
   -9.0360   -0.7920  -21.2390 C   0  0  0  0  0  0  0  0  0  0  0  0
   -9.2200   -1.8440  -22.1190 C   0  0  0  0  0  0  0  0  0  0  0  0
  -10.4310   -0.3210  -23.5340 C   0  0  0  0  0  0  0  0  0  0  0  0
   -9.9190   -1.5870  -23.2900 C   0  0  0  0  0  0  0  0  0  0  0  0
  -10.1440   -2.4620  -24.3220 O   0  0  0  0  0  0  0  0  0  0  0  0
   -9.6540   -3.7990  -24.1990 C   0  0  0  0  0  0  0  0  0  0  0  0
  -12.0520    3.8700  -23.3160 C   0  0  0  0  0  0  0  0  0  0  0  0
  -11.3040    5.0780  -23.8320 C   0  0  0  0  0  0  0  0  0  0  0  0
  -11.6950    5.7100  -24.9870 C   0  0  0  0  0  0  0  0  0  0  0  0
  -11.0330    6.8700  -25.4530 C   0  0  0  0  0  0  0  0  0  0  0  0
   -9.9450    7.3810  -24.7030 C   0  0  0  0  0  0  0  0  0  0  0  0
   -9.5560    6.6960  -23.5300 C   0  0  0  0  0  0  0  0  0  0  0  0
  -10.2210    5.5800  -23.1190 C   0  0  0  0  0  0  0  0  0  0  0  0
  -11.4230    7.5450  -26.6380 C   0  0  0  0  0  0  0  0  0  0  0  0
  -10.7730    8.6780  -27.0370 C   0  0  0  0  0  0  0  0  0  0  0  0
   -9.7130    9.1810  -26.2990 C   0  0  0  0  0  0  0  0  0  0  0  0
   -9.2980    8.5560  -25.1560 C   0  0  0  0  0  0  0  0  0  0  0  0
  2  1  2  0
  3  2  1  0
  4  3  1  0
  5  4  2  0
  6  5  1  0
  7  6  2  0
  8  4  1  0
  9  8  2  0
  9  7  1  0
 10  9  1  0
 11 10  1  0
 12  2  1  0
 13 12  1  0
 14 13  2  0
 15 14  1  0
 16 15  2  0
 17 16  1  0
 18 13  1  0
 18 17  2  0
 19 15  1  0
 20 19  2  0
 21 20  1  0
 22 21  2  0
 22 16  1  0
M  END
$$$$

     RDKit          3D

 18 19  0  0  0  0  0  0  0  0999 V2000
   -8.3000   -3.0570  -23.3940 N   0  0  1  0  0  0  0  0  0  0  0  0
  -12.2450   -3.2050  -22.5720 C   0  0  0  0  0  0  0  0  0  0  0  0
   -5.4730   -5.4000  -19.8150 O   0  0  0  0  0  0  0  0  0  0  0  0
  -11.7040   -2.1090  -23.4540 C   0  0  0  0  0  0  0  0  0  0  0  0
   -6.0240   -2.4740  -21.5780 C   0  0  0  0  0  0  0  0  0  0  0  0
   -6.6740   -4.7690  -22.4000 C   0  0  0  0  0  0  0  0  0  0  0  0
   -7.2390   -4.0550  -23.6250 C   0  0  0  0  0  0  0  0  0  0  0  0
   -6.1180   -4.3810  -20.0500 C   0  0  0  0  0  0  0  0  0  0  0  0
   -6.8510   -3.7120  -18.8960 C   0  0  0  0  0  0  0  0  0  0  0  0
  -12.4580   -0.9570  -23.6190 C   0  0  0  0  0  0  0  0  0  0  0  0
  -12.0220    0.0800  -24.4180 C   0  0  0  0  0  0  0  0  0  0  0  0
  -10.8150   -0.0180  -25.0690 C   0  0  0  0  0  0  0  0  0  0  0  0
  -10.0500   -1.1590  -24.9240 C   0  0  0  0  0  0  0  0  0  0  0  0
  -10.4820   -2.2250  -24.1370 C   0  0  0  0  0  0  0  0  0  0  0  0
   -9.5890   -3.4340  -23.9880 C   0  0  0  0  0  0  0  0  0  0  0  0
   -8.4580   -2.5670  -22.0160 C   0  0  0  0  0  0  0  0  0  0  0  0
   -7.3150   -1.6970  -21.5710 C   0  0  0  0  0  0  0  0  0  0  0  0
   -6.2400   -3.9000  -21.3000 N   0  0  0  0  0  0  0  0  0  0  0  0
  4  2  1  0
  7  6  2  0
  7  1  1  0
  8  3  2  0
  9  8  1  0
 10  4  2  0
 11 10  1  0
 12 11  2  0
 13 12  1  0
 14  4  1  0
 14 13  2  0
 15 14  1  0
  1 15  1  1
 16  1  1  0
 17 16  1  0
 17  5  1  0
 18  6  1  0
 18  8  1  0
 18  5  1  0
M  CHG  1   1   1
M  END
$$$$

     RDKit          3D

 19 20  0  0  0  0  0  0  0  0999 V2000
  -14.1040   -2.9590  -20.8210 N   0  0  0  0  0  0  0  0  0  0  0  0
  -13.3690   -2.5340  -21.5820 C   0  0  0  0  0  0  0  0  0  0  0  0
  -12.4060   -2.0260  -22.5250 C   0  0  0  0  0  0  0  0  0  0  0  0
  -12.7840   -1.2350  -23.6090 C   0  0  0  0  0  0  0  0  0  0  0  0
  -11.9160   -0.7780  -24.5210 N   0  0  0  0  0  0  0  0  0  0  0  0
  -10.6210   -1.0790  -24.3430 C   0  0  0  0  0  0  0  0  0  0  0  0
  -11.0570   -2.3360  -22.3790 C   0  0  0  0  0  0  0  0  0  0  0  0
  -10.1310   -1.8330  -23.2860 C   0  0  0  0  0  0  0  0  0  0  0  0
   -8.6460   -1.9680  -23.0400 C   0  0  0  0  0  0  0  0  0  0  0  0
   -8.2610   -1.1520  -21.8220 C   0  0  0  0  0  0  0  0  0  0  0  0
   -9.0930   -0.5100  -21.1950 O   0  0  0  0  0  0  0  0  0  0  0  0
   -6.9530   -1.0000  -21.6090 N   0  0  0  0  0  0  0  0  0  0  0  0
   -6.3670   -0.6710  -20.3660 C   0  0  0  0  0  0  0  0  0  0  0  0
   -5.0610   -0.1750  -20.3540 C   0  0  0  0  0  0  0  0  0  0  0  0
   -4.3150    0.1160  -21.6310 C   0  0  0  0  0  0  0  0  0  0  0  0
   -7.0220   -0.8680  -19.1460 C   0  0  0  0  0  0  0  0  0  0  0  0
   -6.4950   -0.5310  -17.9650 N   0  0  0  0  0  0  0  0  0  0  0  0
   -5.2720    0.0090  -17.9740 C   0  0  0  0  0  0  0  0  0  0  0  0
   -4.5260    0.1880  -19.1230 C   0  0  0  0  0  0  0  0  0  0  0  0
  2  1  3  0
  3  2  1  0
  4  3  2  0
  5  4  1  0
  6  5  2  0
  7  3  1  0
  8  7  2  0
  8  6  1  0
  9  8  1  0
 10  9  1  0
 11 10  2  0
 12 10  1  0
 13 12  1  0
 14 13  2  0
 15 14  1  0
 16 13  1  0
 17 16  2  0
 18 17  1  0
 19 18  2  0
 19 14  1  0
M  END
$$$$

     RDKit          3D

 27 29  0  0  0  0  0  0  0  0999 V2000
   -5.7110   -0.1960  -18.1610 C   0  0  0  0  0  0  0  0  0  0  0  0
   -5.9540   -1.3940  -18.9510 C   0  0  0  0  0  0  0  0  0  0  0  0
  -14.0020   -3.8780  -25.4410 C   0  0  1  0  0  0  0  0  0  0  0  0
  -12.6300   -3.6500  -24.8800 C   0  0  0  0  0  0  0  0  0  0  0  0
  -11.5660   -4.4660  -25.2750 C   0  0  0  0  0  0  0  0  0  0  0  0
  -12.3510   -2.6310  -23.9590 C   0  0  0  0  0  0  0  0  0  0  0  0
  -11.0820   -2.4280  -23.4470 C   0  0  0  0  0  0  0  0  0  0  0  0
   -4.0700    0.5220  -19.8830 C   0  0  0  0  0  0  0  0  0  0  0  0
   -5.2660   -1.5810  -20.1100 C   0  0  0  0  0  0  0  0  0  0  0  0
  -10.0140   -3.2620  -23.8470 C   0  0  0  0  0  0  0  0  0  0  0  0
  -10.2830   -4.2830  -24.7770 C   0  0  0  0  0  0  0  0  0  0  0  0
   -5.3980   -2.7590  -21.0380 C   0  0  0  0  0  0  0  0  0  0  0  0
   -7.0820   -1.4960  -22.4010 C   0  0  0  0  0  0  0  0  0  0  0  0
   -8.5350   -1.9390  -22.3810 C   0  0  0  0  0  0  0  0  0  0  0  0
   -7.8440   -4.1920  -23.1420 C   0  0  0  0  0  0  0  0  0  0  0  0
   -6.3900   -3.7460  -23.0550 C   0  0  0  0  0  0  0  0  0  0  0  0
  -14.9410   -4.0970  -24.4850 F   0  0  0  0  0  0  0  0  0  0  0  0
  -14.4340   -2.8080  -26.1530 F   0  0  0  0  0  0  0  0  0  0  0  0
  -14.0290   -4.9390  -26.2840 F   0  0  0  0  0  0  0  0  0  0  0  0
   -4.3630   -0.6440  -20.5600 N   0  0  0  0  0  0  0  0  0  0  0  0
   -4.7710    0.6880  -18.7020 N   0  0  0  0  0  0  0  0  0  0  0  0
   -6.2360   -2.6480  -22.0900 N   0  0  0  0  0  0  0  0  0  0  0  0
   -8.7320   -3.0450  -23.3420 N   0  0  0  0  0  0  0  0  0  0  0  0
   -3.2560    1.3430  -20.2950 O   0  0  0  0  0  0  0  0  0  0  0  0
   -6.2700    0.0850  -17.0960 O   0  0  0  0  0  0  0  0  0  0  0  0
   -4.8300   -3.8070  -20.7010 O   0  0  0  0  0  0  0  0  0  0  0  0
  -13.6300   -1.5540  -23.3970 Cl  0  0  0  0  0  0  0  0  0  0  0  0
  2  1  1  0
  4  3  1  0
  5  4  2  0
  6  4  1  0
  7  6  2  0
  9  2  2  0
 10  7  1  0
 11  5  1  0
 11 10  2  0
 12  9  1  0
 14 13  1  0
 16 15  1  0
  3 17  1  1
 18  3  1  0
 19  3  1  0
 20  9  1  0
 20  8  1  0
 21  1  1  0
 21  8  1  0
 22 16  1  0
 22 13  1  0
 22 12  1  0
 23 15  1  0
 23 14  1  0
 23 10  1  0
 24  8  2  0
 25  1  2  0
 26 12  2  0
 27  6  1  0
M  END
$$$$

     RDKit          3D

 32 36  0  0  0  0  0  0  0  0999 V2000
   -7.2360    1.2880  -25.9560 O   0  0  0  0  0  0  0  0  0  0  0  0
   -6.7460   -0.0020  -25.5730 S   0  0  2  0  0  0  0  0  0  0  0  0
   -5.5550   -0.1090  -24.7880 O   0  0  0  0  0  0  0  0  0  0  0  0
   -6.6210   -0.9430  -26.9790 C   0  0  0  0  0  0  0  0  0  0  0  0
   -5.9220   -2.0870  -27.1440 N   0  0  0  0  0  0  0  0  0  0  0  0
   -6.1500   -2.5300  -28.4160 C   0  0  0  0  0  0  0  0  0  0  0  0
   -6.9830   -1.6230  -28.9830 C   0  0  0  0  0  0  0  0  0  0  0  0
   -7.2750   -0.6250  -28.0790 N   0  0  0  0  0  0  0  0  0  0  0  0
   -7.9550   -0.6890  -24.7220 N   0  0  0  0  0  0  0  0  0  0  0  0
   -9.3190   -0.4160  -25.1970 C   0  0  0  0  0  0  0  0  0  0  0  0
   -7.7420   -2.0460  -24.1840 C   0  0  0  0  0  0  0  0  0  0  0  0
   -8.5860   -2.1840  -22.9160 C   0  0  2  0  0  0  0  0  0  0  0  0
  -10.0370   -1.8540  -23.2110 C   0  0  0  0  0  0  0  0  0  0  0  0
  -10.3630   -0.9700  -24.2540 C   0  0  0  0  0  0  0  0  0  0  0  0
  -11.7030   -0.6520  -24.4760 C   0  0  0  0  0  0  0  0  0  0  0  0
  -12.7090   -1.2160  -23.7140 C   0  0  0  0  0  0  0  0  0  0  0  0
  -11.0560   -2.4230  -22.4490 C   0  0  0  0  0  0  0  0  0  0  0  0
  -12.3720   -2.1020  -22.7160 C   0  0  0  0  0  0  0  0  0  0  0  0
  -13.6330   -2.8430  -21.7720 Cl  0  0  0  0  0  0  0  0  0  0  0  0
   -8.0890   -1.2260  -21.8310 C   0  0  0  0  0  0  0  0  0  0  0  0
   -8.3340   -0.0210  -21.8610 O   0  0  0  0  0  0  0  0  0  0  0  0
   -7.3560   -1.8080  -20.8600 N   0  0  0  0  0  0  0  0  0  0  0  0
   -6.4660   -1.2700  -19.9070 C   0  0  0  0  0  0  0  0  0  0  0  0
   -5.5100   -0.2580  -20.2530 C   0  0  0  0  0  0  0  0  0  0  0  0
   -5.0160   -0.0600  -21.5680 C   0  0  0  0  0  0  0  0  0  0  0  0
   -3.9860    0.8060  -21.8150 C   0  0  0  0  0  0  0  0  0  0  0  0
   -3.4070    1.5290  -20.7810 C   0  0  0  0  0  0  0  0  0  0  0  0
   -3.8530    1.3860  -19.4980 C   0  0  0  0  0  0  0  0  0  0  0  0
   -4.9050    0.4850  -19.1960 C   0  0  0  0  0  0  0  0  0  0  0  0
   -5.3020    0.1910  -17.8720 C   0  0  0  0  0  0  0  0  0  0  0  0
   -6.1650   -0.7530  -17.5480 N   0  0  0  0  0  0  0  0  0  0  0  0
   -6.7090   -1.4610  -18.5460 C   0  0  0  0  0  0  0  0  0  0  0  0
  2  1  2  0
  3  2  2  0
  4  2  1  0
  5  4  2  0
  6  5  1  0
  7  6  2  0
  8  7  1  0
  8  4  1  0
  2  9  1  1
 10  9  1  0
 11  9  1  0
 12 11  1  0
 13 12  1  0
 14 13  2  0
 14 10  1  0
 15 14  1  0
 16 15  2  0
 17 13  1  0
 18 17  2  0
 18 16  1  0
 19 18  1  0
 12 20  1  1
 21 20  2  0
 22 20  1  0
 23 22  1  0
 24 23  1  0
 25 24  2  0
 26 25  1  0
 27 26  2  0
 28 27  1  0
 29 24  1  0
 29 28  2  0
 30 29  1  0
 31 30  2  0
 32 31  1  0
 32 23  2  0
M  END
$$$$

     RDKit          3D

 22 24  0  0  0  0  0  0  0  0999 V2000
   -3.3030   -3.6120  -26.4350 S   0  0  0  0  0  0  0  0  0  0  0  0
   -6.8050   -4.8030  -21.6160 N   0  0  0  0  0  0  0  0  0  0  0  0
   -4.7660   -5.0050  -28.0260 N   0  0  0  0  0  0  0  0  0  0  0  0
   -3.2260   -4.8870  -32.3600 C   0  0  0  0  0  0  0  0  0  0  0  0
   -6.4130   -4.7740  -20.3160 C   0  0  0  0  0  0  0  0  0  0  0  0
   -2.3870   -5.0790  -28.6620 C   0  0  0  0  0  0  0  0  0  0  0  0
   -7.8360   -3.9800  -22.2590 C   0  0  0  0  0  0  0  0  0  0  0  0
   -6.0500   -5.5770  -22.6040 C   0  0  0  0  0  0  0  0  0  0  0  0
   -5.5970   -4.3800  -27.1420 C   0  0  0  0  0  0  0  0  0  0  0  0
   -5.0250   -3.5880  -26.2120 C   0  0  0  0  0  0  0  0  0  0  0  0
   -5.7020   -2.8100  -25.1280 C   0  0  0  0  0  0  0  0  0  0  0  0
   -2.4990   -2.7340  -31.6470 C   0  0  0  0  0  0  0  0  0  0  0  0
   -3.0100   -5.3830  -31.0860 C   0  0  0  0  0  0  0  0  0  0  0  0
   -2.5450   -4.5580  -30.0720 C   0  0  0  0  0  0  0  0  0  0  0  0
   -2.9700   -3.5630  -32.6410 C   0  0  0  0  0  0  0  0  0  0  0  0
   -2.2860   -3.2280  -30.3710 C   0  0  0  0  0  0  0  0  0  0  0  0
   -6.9610   -3.7000  -19.4300 C   0  0  0  0  0  0  0  0  0  0  0  0
   -6.3680   -3.7470  -24.2310 N   0  0  2  0  0  0  0  0  0  0  0  0
   -5.5880   -5.5630  -19.8970 O   0  0  0  0  0  0  0  0  0  0  0  0
   -3.5370   -4.6800  -27.7860 C   0  0  0  0  0  0  0  0  0  0  0  0
   -7.1800   -3.0190  -23.2350 C   0  0  0  0  0  0  0  0  0  0  0  0
   -5.3730   -4.6220  -23.5660 C   0  0  0  0  0  0  0  0  0  0  0  0
  5  2  1  0
  7  2  1  0
  8  2  1  0
  9  3  1  0
 10  9  2  0
 10  1  1  0
 11 10  1  0
 13  4  2  0
 14 13  1  0
 14  6  1  0
 15 12  2  0
 15  4  1  0
 16 14  2  0
 16 12  1  0
 17  5  1  0
 18 11  1  6
 19  5  2  0
 20  6  1  0
 20  3  2  0
 20  1  1  0
 21 18  1  0
 21  7  1  0
 22  8  1  0
 22 18  1  0
M  CHG  1  18   1
M  END
$$$$

     RDKit          3D

 21 23  0  0  0  0  0  0  0  0999 V2000
   -8.7500   -0.2090  -21.4200 O   0  0  0  0  0  0  0  0  0  0  0  0
   -8.1760   -1.2670  -21.6840 C   0  0  0  0  0  0  0  0  0  0  0  0
   -8.7170   -2.2320  -22.7230 C   0  0  0  0  0  0  0  0  0  0  0  0
  -10.1350   -1.9180  -23.1450 C   0  0  0  0  0  0  0  0  0  0  0  0
  -10.3900   -1.0430  -24.1950 C   0  0  0  0  0  0  0  0  0  0  0  0
  -11.6880   -0.6520  -24.4940 C   0  0  0  0  0  0  0  0  0  0  0  0
  -12.7510   -1.1280  -23.7450 C   0  0  0  0  0  0  0  0  0  0  0  0
  -11.2090   -2.4340  -22.4260 C   0  0  0  0  0  0  0  0  0  0  0  0
  -12.4940   -2.0250  -22.7270 C   0  0  0  0  0  0  0  0  0  0  0  0
  -13.8220   -2.6590  -21.7890 Cl  0  0  0  0  0  0  0  0  0  0  0  0
   -7.0300   -1.6770  -21.0860 N   0  0  0  0  0  0  0  0  0  0  0  0
   -6.3130   -1.0490  -20.0440 C   0  0  0  0  0  0  0  0  0  0  0  0
   -5.2120   -0.2000  -20.3870 C   0  0  0  0  0  0  0  0  0  0  0  0
   -4.7170   -0.0430  -21.7080 C   0  0  0  0  0  0  0  0  0  0  0  0
   -3.6860    0.8150  -21.9750 C   0  0  0  0  0  0  0  0  0  0  0  0
   -3.1030    1.5610  -20.9570 C   0  0  0  0  0  0  0  0  0  0  0  0
   -3.5360    1.4360  -19.6670 C   0  0  0  0  0  0  0  0  0  0  0  0
   -4.5920    0.5460  -19.3430 C   0  0  0  0  0  0  0  0  0  0  0  0
   -5.0800    0.3670  -18.0240 C   0  0  0  0  0  0  0  0  0  0  0  0
   -6.0830   -0.4400  -17.7010 N   0  0  0  0  0  0  0  0  0  0  0  0
   -6.6760   -1.1200  -18.6960 C   0  0  0  0  0  0  0  0  0  0  0  0
  2  1  2  0
  3  2  1  0
  4  3  1  0
  5  4  2  0
  6  5  1  0
  7  6  2  0
  8  4  1  0
  9  8  2  0
  9  7  1  0
 10  9  1  0
 11  2  1  0
 12 11  1  0
 13 12  1  0
 14 13  2  0
 15 14  1  0
 16 15  2  0
 17 16  1  0
 18 17  2  0
 18 13  1  0
 19 18  1  0
 20 19  2  0
 21 20  1  0
 21 12  2  0
M  END
$$$$

     RDKit          3D

 30 33  0  0  0  0  0  0  0  0999 V2000
  -13.3650    5.3400  -22.4060 O   0  0  0  0  0  0  0  0  0  0  0  0
  -13.3320    4.1420  -22.6610 C   0  0  0  0  0  0  0  0  0  0  0  0
  -12.5760    2.9360  -22.1260 C   0  0  0  0  0  0  0  0  0  0  0  0
  -13.9970    3.3980  -23.5640 N   0  0  0  0  0  0  0  0  0  0  0  0
  -13.5670    2.1160  -22.9610 C   0  0  1  0  0  0  0  0  0  0  0  0
  -12.7770    1.3150  -23.8570 O   0  0  0  0  0  0  0  0  0  0  0  0
  -12.5000    0.0380  -23.4240 C   0  0  0  0  0  0  0  0  0  0  0  0
  -13.5180   -0.8370  -23.0770 C   0  0  0  0  0  0  0  0  0  0  0  0
  -13.1710   -2.1130  -22.6730 C   0  0  0  0  0  0  0  0  0  0  0  0
  -14.4250   -3.2090  -22.1720 Cl  0  0  0  0  0  0  0  0  0  0  0  0
  -11.1680   -0.3410  -23.3590 C   0  0  0  0  0  0  0  0  0  0  0  0
  -10.8640   -1.6310  -22.9580 C   0  0  0  0  0  0  0  0  0  0  0  0
  -11.8580   -2.5370  -22.6240 C   0  0  0  0  0  0  0  0  0  0  0  0
   -9.5240   -1.9190  -22.9250 O   0  0  0  0  0  0  0  0  0  0  0  0
   -9.1140   -3.2390  -22.5430 C   0  0  0  0  0  0  0  0  0  0  0  0
   -7.6180   -3.2340  -22.5160 C   0  0  0  0  0  0  0  0  0  0  0  0
   -7.1240   -2.2260  -21.5850 N   0  0  0  0  0  0  0  0  0  0  0  0
   -5.9120   -2.3080  -21.0400 C   0  0  0  0  0  0  0  0  0  0  0  0
   -5.1530   -3.2570  -21.2470 O   0  0  0  0  0  0  0  0  0  0  0  0
   -5.5150   -1.1810  -20.1760 C   0  0  0  0  0  0  0  0  0  0  0  0
   -4.5230   -0.2070  -20.6100 C   0  0  0  0  0  0  0  0  0  0  0  0
   -3.9730   -0.1940  -21.8950 C   0  0  0  0  0  0  0  0  0  0  0  0
   -3.0500    0.7790  -22.2440 C   0  0  0  0  0  0  0  0  0  0  0  0
   -2.6500    1.7320  -21.3220 C   0  0  0  0  0  0  0  0  0  0  0  0
   -3.1770    1.7340  -20.0390 C   0  0  0  0  0  0  0  0  0  0  0  0
   -4.1260    0.7740  -19.6800 C   0  0  0  0  0  0  0  0  0  0  0  0
   -4.7140    0.7900  -18.4190 N   0  0  0  0  0  0  0  0  0  0  0  0
   -5.6920   -0.0760  -18.0060 C   0  0  0  0  0  0  0  0  0  0  0  0
   -6.2420    0.0830  -16.9110 O   0  0  0  0  0  0  0  0  0  0  0  0
   -6.0630   -1.0840  -18.9390 C   0  0  0  0  0  0  0  0  0  0  0  0
  2  1  2  0
  3  2  1  0
  4  2  1  0
  5  4  1  0
  5  3  1  0
  5  6  1  6
  7  6  1  0
  8  7  2  0
  9  8  1  0
 10  9  1  0
 11  7  1  0
 12 11  2  0
 13  9  2  0
 13 12  1  0
 14 12  1  0
 15 14  1  0
 16 15  1  0
 17 16  1  0
 18 17  1  0
 19 18  2  0
 20 18  1  0
 21 20  1  0
 22 21  2  0
 23 22  1  0
 24 23  2  0
 25 24  1  0
 26 25  2  0
 26 21  1  0
 27 26  1  0
 28 27  1  0
 29 28  2  0
 30 28  1  0
 30 20  2  0
M  END
$$$$

     RDKit          3D

 24 26  0  0  0  0  0  0  0  0999 V2000
  -13.8010   -2.6690  -21.7960 Cl  0  0  0  0  0  0  0  0  0  0  0  0
  -12.5320   -1.9340  -22.7370 C   0  0  0  0  0  0  0  0  0  0  0  0
  -12.8650   -1.0330  -23.7310 C   0  0  0  0  0  0  0  0  0  0  0  0
  -11.8520   -0.5120  -24.5200 C   0  0  0  0  0  0  0  0  0  0  0  0
  -10.5310   -0.8640  -24.2840 C   0  0  0  0  0  0  0  0  0  0  0  0
  -11.2220   -2.2940  -22.4920 C   0  0  0  0  0  0  0  0  0  0  0  0
  -10.2000   -1.7430  -23.2580 C   0  0  0  0  0  0  0  0  0  0  0  0
   -8.7550   -2.0300  -22.9190 C   0  0  0  0  0  0  0  0  0  0  0  0
   -8.2310   -1.1230  -21.8250 C   0  0  0  0  0  0  0  0  0  0  0  0
   -8.8120   -0.0830  -21.5020 O   0  0  0  0  0  0  0  0  0  0  0  0
   -7.1010   -1.5560  -21.2360 N   0  0  0  0  0  0  0  0  0  0  0  0
   -6.4660   -1.0230  -20.0970 C   0  0  0  0  0  0  0  0  0  0  0  0
   -6.9340   -1.1990  -18.7950 C   0  0  0  0  0  0  0  0  0  0  0  0
   -6.3990   -0.6320  -17.7050 N   0  0  0  0  0  0  0  0  0  0  0  0
   -5.3590    0.1690  -17.8780 C   0  0  0  0  0  0  0  0  0  0  0  0
   -4.7730    0.4560  -19.1360 C   0  0  0  0  0  0  0  0  0  0  0  0
   -5.3290   -0.1800  -20.2810 C   0  0  0  0  0  0  0  0  0  0  0  0
   -4.7190    0.0590  -21.5400 C   0  0  0  0  0  0  0  0  0  0  0  0
   -3.6400    0.8860  -21.6560 C   0  0  0  0  0  0  0  0  0  0  0  0
   -3.6700    1.3250  -19.2970 C   0  0  0  0  0  0  0  0  0  0  0  0
   -3.1050    1.5360  -20.5310 C   0  0  0  0  0  0  0  0  0  0  0  0
   -1.9200    2.4350  -20.6580 C   0  0  0  0  0  0  0  0  0  0  0  0
   -1.5730    3.1830  -19.7390 O   0  0  0  0  0  0  0  0  0  0  0  0
   -1.2660    2.3400  -21.7850 O   0  0  0  0  0  0  0  0  0  0  0  0
  2  1  1  0
  3  2  2  0
  4  3  1  0
  5  4  2  0
  6  2  1  0
  7  6  2  0
  7  5  1  0
  8  7  1  0
  9  8  1  0
 10  9  2  0
 11  9  1  0
 12 11  1  0
 13 12  2  0
 14 13  1  0
 15 14  2  0
 16 15  1  0
 17 12  1  0
 17 16  2  0
 18 17  1  0
 19 18  2  0
 20 16  1  0
 21 20  2  0
 21 19  1  0
 22 21  1  0
 23 22  2  0
 24 22  1  0
M  CHG  1  24  -1
M  END
$$$$

     RDKit          3D

 38 43  0  0  0  0  0  0  0  0999 V2000
   -9.2160    0.3060  -21.1700 O   0  0  0  0  0  0  0  0  0  0  0  0
   -8.6920   -0.6170  -21.7790 C   0  0  0  0  0  0  0  0  0  0  0  0
   -7.5100   -1.1650  -21.3900 N   0  0  0  0  0  0  0  0  0  0  0  0
   -6.7590   -0.8380  -20.2320 C   0  0  0  0  0  0  0  0  0  0  0  0
   -5.6000   -0.0080  -20.3730 C   0  0  0  0  0  0  0  0  0  0  0  0
   -5.0900    0.4290  -21.6230 C   0  0  0  0  0  0  0  0  0  0  0  0
   -3.9930    1.2380  -21.6900 C   0  0  0  0  0  0  0  0  0  0  0  0
   -3.3500    1.6590  -20.5330 C   0  0  0  0  0  0  0  0  0  0  0  0
   -3.8030    1.2660  -19.3050 C   0  0  0  0  0  0  0  0  0  0  0  0
   -4.9350    0.4220  -19.1910 C   0  0  0  0  0  0  0  0  0  0  0  0
   -5.4540   -0.0140  -17.9450 C   0  0  0  0  0  0  0  0  0  0  0  0
   -6.5120   -0.8040  -17.8140 N   0  0  0  0  0  0  0  0  0  0  0  0
   -7.1340   -1.1990  -18.9340 C   0  0  0  0  0  0  0  0  0  0  0  0
   -9.3500   -1.1860  -23.0550 C   0  0  2  0  0  0  0  0  0  0  0  0
   -8.7450   -0.3680  -24.2190 C   0  0  0  0  0  0  0  0  0  0  0  0
   -9.4180    0.9800  -24.3670 C   0  0  0  0  0  0  0  0  0  0  0  0
  -10.8360    0.8500  -24.5800 O   0  0  0  0  0  0  0  0  0  0  0  0
  -10.8790   -1.0060  -22.9980 C   0  0  0  0  0  0  0  0  0  0  0  0
  -11.5030    0.0440  -23.6890 C   0  0  0  0  0  0  0  0  0  0  0  0
  -12.8660    0.2740  -23.5840 C   0  0  0  0  0  0  0  0  0  0  0  0
  -13.6380   -0.5620  -22.8010 C   0  0  0  0  0  0  0  0  0  0  0  0
  -11.6780   -1.8550  -22.2290 C   0  0  0  0  0  0  0  0  0  0  0  0
  -13.0370   -1.6130  -22.1380 C   0  0  0  0  0  0  0  0  0  0  0  0
  -14.0010   -2.6210  -21.0930 Cl  0  0  0  0  0  0  0  0  0  0  0  0
   -9.0010   -2.6890  -23.1630 C   0  0  0  0  0  0  0  0  0  0  0  0
   -9.6130   -3.4480  -24.3250 C   0  0  0  0  0  0  0  0  0  0  0  0
  -10.3510   -2.9240  -25.1530 O   0  0  0  0  0  0  0  0  0  0  0  0
   -9.3190   -4.7700  -24.3970 N   0  0  0  0  0  0  0  0  0  0  0  0
   -9.8060   -5.6430  -25.4810 C   0  0  2  0  0  0  0  0  0  0  0  0
   -9.4800   -7.0480  -24.9710 C   0  0  0  0  0  0  0  0  0  0  0  0
   -8.3180   -6.8610  -24.0150 C   0  0  0  0  0  0  0  0  0  0  0  0
   -8.5340   -5.5090  -23.3880 C   0  0  0  0  0  0  0  0  0  0  0  0
   -9.2420   -5.3390  -26.8780 C   0  0  0  0  0  0  0  0  0  0  0  0
   -7.7860   -5.4850  -26.9340 N   0  0  0  0  0  0  0  0  0  0  0  0
   -6.8620   -4.6520  -26.4080 C   0  0  0  0  0  0  0  0  0  0  0  0
   -5.6370   -5.1050  -26.5640 N   0  0  0  0  0  0  0  0  0  0  0  0
   -5.7880   -6.2920  -27.2470 C   0  0  0  0  0  0  0  0  0  0  0  0
   -7.0960   -6.5380  -27.4860 C   0  0  0  0  0  0  0  0  0  0  0  0
  2  1  2  0
  3  2  1  0
  4  3  1  0
  5  4  1  0
  6  5  2  0
  7  6  1  0
  8  7  2  0
  9  8  1  0
 10  5  1  0
 10  9  2  0
 11 10  1  0
 12 11  2  0
 13 12  1  0
 13  4  2  0
 14  2  1  0
 15 14  1  0
 16 15  1  0
 17 16  1  0
 18 14  1  0
 19 18  2  0
 19 17  1  0
 20 19  1  0
 21 20  2  0
 22 18  1  0
 23 22  2  0
 23 21  1  0
 24 23  1  0
 14 25  1  6
 26 25  1  0
 27 26  2  0
 28 26  1  0
 29 28  1  0
 30 29  1  0
 31 30  1  0
 32 31  1  0
 32 28  1  0
 29 33  1  6
 34 33  1  0
 35 34  1  0
 36 35  2  0
 37 36  1  0
 38 37  2  0
 38 34  1  0
M  END
$$$$

     RDKit          3D

 30 34  0  0  0  0  0  0  0  0999 V2000
   -8.3740   -0.0480  -21.6130 O   0  0  0  0  0  0  0  0  0  0  0  0
   -8.1120   -1.2440  -21.5060 C   0  0  0  0  0  0  0  0  0  0  0  0
   -7.4210   -1.7530  -20.4690 N   0  0  0  0  0  0  0  0  0  0  0  0
   -6.4390   -1.1730  -19.6370 C   0  0  0  0  0  0  0  0  0  0  0  0
   -5.4930   -0.2090  -20.1310 C   0  0  0  0  0  0  0  0  0  0  0  0
   -5.1200   -0.0940  -21.4950 C   0  0  0  0  0  0  0  0  0  0  0  0
   -4.1230    0.7590  -21.8850 C   0  0  0  0  0  0  0  0  0  0  0  0
   -3.4520    1.5360  -20.9530 C   0  0  0  0  0  0  0  0  0  0  0  0
   -3.7750    1.4660  -19.6290 C   0  0  0  0  0  0  0  0  0  0  0  0
   -4.7970    0.5900  -19.1810 C   0  0  0  0  0  0  0  0  0  0  0  0
   -5.1010    0.4000  -17.8140 C   0  0  0  0  0  0  0  0  0  0  0  0
   -5.9540   -0.5000  -17.3570 N   0  0  0  0  0  0  0  0  0  0  0  0
   -6.5780   -1.2710  -18.2540 C   0  0  0  0  0  0  0  0  0  0  0  0
   -8.6760   -2.2920  -22.4670 C   0  0  1  0  0  0  0  0  0  0  0  0
  -10.0860   -1.9110  -22.8690 C   0  0  0  0  0  0  0  0  0  0  0  0
  -10.2910   -0.9710  -23.8860 C   0  0  0  0  0  0  0  0  0  0  0  0
  -11.5770   -0.5430  -24.2090 C   0  0  0  0  0  0  0  0  0  0  0  0
  -12.6670   -1.0910  -23.5550 C   0  0  0  0  0  0  0  0  0  0  0  0
  -11.1920   -2.4660  -22.2280 C   0  0  0  0  0  0  0  0  0  0  0  0
  -12.4620   -2.0550  -22.5870 C   0  0  0  0  0  0  0  0  0  0  0  0
  -13.8370   -2.7720  -21.7940 Cl  0  0  0  0  0  0  0  0  0  0  0  0
   -7.8190   -2.4140  -23.7450 C   0  0  0  0  0  0  0  0  0  0  0  0
   -7.8350   -1.1150  -24.5560 C   0  0  0  0  0  0  0  0  0  0  0  0
   -9.1750   -0.5260  -24.6820 N   0  0  0  0  0  0  0  0  0  0  0  0
   -9.2560    0.6810  -25.4860 C   0  0  0  0  0  0  0  0  0  0  0  0
   -9.6160    0.3800  -26.9040 C   0  0  0  0  0  0  0  0  0  0  0  0
  -10.4750   -0.5520  -27.3160 N   0  0  0  0  0  0  0  0  0  0  0  0
  -10.5430   -0.5360  -28.6820 N   0  0  0  0  0  0  0  0  0  0  0  0
   -9.7140    0.4160  -29.0480 C   0  0  0  0  0  0  0  0  0  0  0  0
   -9.0970    1.0350  -28.0080 N   0  0  0  0  0  0  0  0  0  0  0  0
  2  1  2  0
  3  2  1  0
  4  3  1  0
  5  4  1  0
  6  5  2  0
  7  6  1  0
  8  7  2  0
  9  8  1  0
 10  5  1  0
 10  9  2  0
 11 10  1  0
 12 11  2  0
 13 12  1  0
 13  4  2  0
 14  2  1  1
 15 14  1  0
 16 15  1  0
 17 16  2  0
 18 17  1  0
 19 15  2  0
 20 19  1  0
 20 18  2  0
 21 20  1  0
 22 14  1  0
 23 22  1  0
 24 23  1  0
 24 16  1  0
 25 24  1  0
 26 25  1  0
 27 26  2  0
 28 27  1  0
 29 28  2  0
 30 29  1  0
 30 26  1  0
M  END
$$$$

     RDKit          3D

 21 23  0  0  0  0  0  0  0  0999 V2000
  -14.0710   -2.9230  -21.0950 Cl  0  0  0  0  0  0  0  0  0  0  0  0
  -13.0360   -2.0450  -22.1930 C   0  0  0  0  0  0  0  0  0  0  0  0
  -13.5910   -1.1120  -23.0420 C   0  0  0  0  0  0  0  0  0  0  0  0
  -12.7600   -0.3280  -23.8230 C   0  0  0  0  0  0  0  0  0  0  0  0
  -11.6730   -2.2390  -22.1230 C   0  0  0  0  0  0  0  0  0  0  0  0
  -10.8190   -1.4540  -22.8910 C   0  0  0  0  0  0  0  0  0  0  0  0
  -11.3850   -0.4990  -23.7470 C   0  0  0  0  0  0  0  0  0  0  0  0
  -10.6420    0.2820  -24.6020 O   0  0  0  0  0  0  0  0  0  0  0  0
   -9.1930    0.1480  -24.5660 C   0  0  0  0  0  0  0  0  0  0  0  0
   -8.7110   -1.2300  -24.1800 C   0  0  0  0  0  0  0  0  0  0  0  0
   -9.3150   -1.6440  -22.8330 C   0  0  1  0  0  0  0  0  0  0  0  0
   -8.7130   -0.9010  -21.6370 C   0  0  0  0  0  0  0  0  0  0  0  0
   -9.1790    0.1610  -21.2200 O   0  0  0  0  0  0  0  0  0  0  0  0
   -7.6390   -1.5150  -21.0740 N   0  0  0  0  0  0  0  0  0  0  0  0
   -6.8400   -1.0140  -20.0160 C   0  0  0  0  0  0  0  0  0  0  0  0
   -5.6220   -0.3770  -20.3180 C   0  0  0  0  0  0  0  0  0  0  0  0
   -5.1010   -0.2860  -21.7300 C   0  0  0  0  0  0  0  0  0  0  0  0
   -7.2480   -1.0560  -18.6780 C   0  0  0  0  0  0  0  0  0  0  0  0
   -6.5560   -0.5060  -17.6690 N   0  0  0  0  0  0  0  0  0  0  0  0
   -5.4070    0.1030  -17.9760 C   0  0  0  0  0  0  0  0  0  0  0  0
   -4.9110    0.1890  -19.2620 C   0  0  0  0  0  0  0  0  0  0  0  0
  2  1  1  0
  3  2  2  0
  4  3  1  0
  5  2  1  0
  6  5  2  0
  7  4  2  0
  7  6  1  0
  8  7  1  0
  9  8  1  0
 10  9  1  0
 11 10  1  0
 11  6  1  0
 11 12  1  1
 13 12  2  0
 14 12  1  0
 15 14  1  0
 16 15  2  0
 17 16  1  0
 18 15  1  0
 19 18  2  0
 20 19  1  0
 21 16  1  0
 21 20  2  0
M  END
$$$$

     RDKit          3D

 34 38  0  0  0  0  0  0  0  0999 V2000
  -10.5260    2.0370  -24.5830 O   0  0  0  0  0  0  0  0  0  0  0  0
  -10.1520    0.9020  -24.3440 C   0  0  0  0  0  0  0  0  0  0  0  0
   -8.8050    0.5380  -24.4540 N   0  0  0  0  0  0  0  0  0  0  0  0
   -7.6370    1.6820  -24.6800 S   0  0  1  0  0  0  0  0  0  0  0  0
   -6.4050    0.9820  -24.8700 O   0  0  0  0  0  0  0  0  0  0  0  0
   -8.0810    2.5820  -25.6970 O   0  0  0  0  0  0  0  0  0  0  0  0
   -7.5550    2.5770  -23.1390 C   0  0  0  0  0  0  0  0  0  0  0  0
   -6.8100    3.9220  -23.1870 C   0  0  1  0  0  0  0  0  0  0  0  0
   -5.9580    4.4000  -22.0650 C   0  0  0  0  0  0  0  0  0  0  0  0
   -5.3340    3.9770  -23.3730 C   0  0  0  0  0  0  0  0  0  0  0  0
   -7.6320    4.9400  -23.7940 O   0  0  0  0  0  0  0  0  0  0  0  0
   -8.5650    5.6630  -22.9780 C   0  0  0  0  0  0  0  0  0  0  0  0
  -11.0410   -0.1220  -23.7710 C   0  0  0  0  0  0  0  0  0  0  0  0
  -12.4160    0.1240  -23.7290 C   0  0  0  0  0  0  0  0  0  0  0  0
  -13.2710   -0.7590  -23.0990 C   0  0  0  0  0  0  0  0  0  0  0  0
  -12.7490   -1.8880  -22.5090 C   0  0  0  0  0  0  0  0  0  0  0  0
  -13.8270   -3.0000  -21.7070 Cl  0  0  0  0  0  0  0  0  0  0  0  0
  -11.3930   -2.1570  -22.5230 C   0  0  0  0  0  0  0  0  0  0  0  0
  -10.5190   -1.2670  -23.1490 C   0  0  0  0  0  0  0  0  0  0  0  0
   -9.0210   -1.5080  -23.1020 C   0  0  1  0  0  0  0  0  0  0  0  0
   -8.3430   -0.8640  -24.3120 C   0  0  0  0  0  0  0  0  0  0  0  0
   -8.4610   -0.8650  -21.8300 C   0  0  0  0  0  0  0  0  0  0  0  0
   -8.9250    0.1740  -21.3630 O   0  0  0  0  0  0  0  0  0  0  0  0
   -7.3780   -1.4850  -21.3030 N   0  0  0  0  0  0  0  0  0  0  0  0
   -6.6090   -1.0500  -20.2020 C   0  0  0  0  0  0  0  0  0  0  0  0
   -5.5170   -0.1610  -20.4490 C   0  0  0  0  0  0  0  0  0  0  0  0
   -4.9880    0.0990  -21.7390 C   0  0  0  0  0  0  0  0  0  0  0  0
   -3.9470    0.9690  -21.9080 C   0  0  0  0  0  0  0  0  0  0  0  0
   -3.3890    1.6290  -20.8190 C   0  0  0  0  0  0  0  0  0  0  0  0
   -3.8650    1.4130  -19.5570 C   0  0  0  0  0  0  0  0  0  0  0  0
   -4.9280    0.5040  -19.3340 C   0  0  0  0  0  0  0  0  0  0  0  0
   -5.4360    0.2060  -18.0450 C   0  0  0  0  0  0  0  0  0  0  0  0
   -6.4190   -0.6540  -17.8130 N   0  0  0  0  0  0  0  0  0  0  0  0
   -6.9780   -1.2590  -18.8730 C   0  0  0  0  0  0  0  0  0  0  0  0
  2  1  2  0
  3  2  1  0
  4  3  1  0
  5  4  2  0
  6  4  2  0
  4  7  1  1
  8  7  1  1
  9  8  1  0
 10  9  1  0
 10  8  1  0
 11  8  1  0
 12 11  1  0
 13  2  1  0
 14 13  2  0
 15 14  1  0
 16 15  2  0
 17 16  1  0
 18 16  1  0
 19 18  2  0
 19 13  1  0
 20 19  1  0
 21 20  1  0
 21  3  1  0
 20 22  1  1
 23 22  2  0
 24 22  1  0
 25 24  1  0
 26 25  1  0
 27 26  2  0
 28 27  1  0
 29 28  2  0
 30 29  1  0
 31 26  1  0
 31 30  2  0
 32 31  1  0
 33 32  2  0
 34 33  1  0
 34 25  2  0
M  END
$$$$

     RDKit          3D

 20 22  0  0  0  0  0  0  0  0999 V2000
   -9.0100   -0.0570  -21.5350 O   0  0  0  0  0  0  0  0  0  0  0  0
   -8.5690   -1.1390  -21.9230 C   0  0  0  0  0  0  0  0  0  0  0  0
   -9.1210   -1.8460  -23.1460 C   0  0  0  0  0  0  0  0  0  0  0  0
  -10.6060   -1.6080  -23.3160 C   0  0  0  0  0  0  0  0  0  0  0  0
  -11.0770   -0.6540  -24.2100 C   0  0  0  0  0  0  0  0  0  0  0  0
  -12.4210   -0.3180  -24.2510 C   0  0  0  0  0  0  0  0  0  0  0  0
  -13.3210   -0.9380  -23.3980 C   0  0  0  0  0  0  0  0  0  0  0  0
  -11.5180   -2.2630  -22.4930 C   0  0  0  0  0  0  0  0  0  0  0  0
  -12.8550   -1.9180  -22.5440 C   0  0  0  0  0  0  0  0  0  0  0  0
  -13.9870   -2.7650  -21.5220 Cl  0  0  0  0  0  0  0  0  0  0  0  0
   -7.5250   -1.7740  -21.3100 N   0  0  0  0  0  0  0  0  0  0  0  0
   -6.9190   -1.3010  -20.1460 C   0  0  0  0  0  0  0  0  0  0  0  0
   -5.8070   -0.4790  -20.1770 N   0  0  0  0  0  0  0  0  0  0  0  0
   -5.5400   -0.1440  -18.8480 C   0  0  0  0  0  0  0  0  0  0  0  0
   -6.4150   -0.7230  -18.0230 N   0  0  0  0  0  0  0  0  0  0  0  0
   -7.2600   -1.4340  -18.8390 C   0  0  0  0  0  0  0  0  0  0  0  0
   -5.0510    0.0150  -21.2250 C   0  0  0  0  0  0  0  0  0  0  0  0
   -4.0340    0.8660  -20.9670 C   0  0  0  0  0  0  0  0  0  0  0  0
   -3.7400    1.2420  -19.6310 C   0  0  0  0  0  0  0  0  0  0  0  0
   -4.4640    0.7440  -18.5860 C   0  0  0  0  0  0  0  0  0  0  0  0
  2  1  2  0
  3  2  1  0
  4  3  1  0
  5  4  2  0
  6  5  1  0
  7  6  2  0
  8  4  1  0
  9  8  2  0
  9  7  1  0
 10  9  1  0
 11  2  1  0
 12 11  1  0
 13 12  1  0
 14 13  1  0
 15 14  2  0
 16 15  1  0
 16 12  2  0
 17 13  1  0
 18 17  2  0
 19 18  1  0
 20 14  1  0
 20 19  2  0
M  CHG  1  15   1
M  END
$$$$

     RDKit          3D

 28 31  0  0  0  0  0  0  0  0999 V2000
  -13.5930   -2.8750  -21.3050 Cl  0  0  0  0  0  0  0  0  0  0  0  0
  -12.6340   -1.8860  -22.3600 C   0  0  0  0  0  0  0  0  0  0  0  0
  -13.2640   -1.0180  -23.2230 C   0  0  0  0  0  0  0  0  0  0  0  0
  -12.5100   -0.3120  -24.1410 C   0  0  0  0  0  0  0  0  0  0  0  0
  -11.1340   -0.4820  -24.1680 C   0  0  0  0  0  0  0  0  0  0  0  0
  -10.4520    0.2410  -25.1140 O   0  0  0  0  0  0  0  0  0  0  0  0
   -9.2410   -0.3870  -25.5610 C   0  0  0  0  0  0  0  0  0  0  0  0
   -8.2940   -0.6350  -24.4150 C   0  0  0  0  0  0  0  0  0  0  0  0
  -11.2650   -2.0440  -22.3610 C   0  0  0  0  0  0  0  0  0  0  0  0
  -10.4900   -1.3380  -23.2770 C   0  0  0  0  0  0  0  0  0  0  0  0
   -8.9800   -1.4670  -23.3140 C   0  0  2  0  0  0  0  0  0  0  0  0
   -8.4820   -1.0480  -21.9330 C   0  0  0  0  0  0  0  0  0  0  0  0
   -8.9290   -0.0720  -21.3620 O   0  0  0  0  0  0  0  0  0  0  0  0
   -7.5170   -1.8470  -21.2920 N   0  0  0  0  0  0  0  0  0  0  0  0
   -7.3170   -3.2170  -21.5630 C   0  0  0  0  0  0  0  0  0  0  0  0
   -8.1660   -3.8690  -22.1600 O   0  0  0  0  0  0  0  0  0  0  0  0
   -6.0900   -3.8780  -21.0050 C   0  0  0  0  0  0  0  0  0  0  0  0
   -6.4520   -4.9850  -20.0290 C   0  0  0  0  0  0  0  0  0  0  0  0
   -6.7520   -1.2180  -20.2320 C   0  0  0  0  0  0  0  0  0  0  0  0
   -7.1840   -1.2430  -18.9100 C   0  0  0  0  0  0  0  0  0  0  0  0
   -6.5710   -0.6000  -17.9070 N   0  0  0  0  0  0  0  0  0  0  0  0
   -5.4850    0.1050  -18.1990 C   0  0  0  0  0  0  0  0  0  0  0  0
   -4.9340    0.2240  -19.5030 C   0  0  0  0  0  0  0  0  0  0  0  0
   -5.5900   -0.4640  -20.5620 C   0  0  0  0  0  0  0  0  0  0  0  0
   -3.7530    0.9530  -19.7840 C   0  0  0  0  0  0  0  0  0  0  0  0
   -3.2390    0.9830  -21.0470 C   0  0  0  0  0  0  0  0  0  0  0  0
   -3.8660    0.3050  -22.0820 C   0  0  0  0  0  0  0  0  0  0  0  0
   -5.0170   -0.3920  -21.8580 C   0  0  0  0  0  0  0  0  0  0  0  0
  2  1  1  0
  3  2  2  0
  4  3  1  0
  5  4  2  0
  6  5  1  0
  7  6  1  0
  8  7  1  0
  9  2  1  0
 10  9  2  0
 10  5  1  0
 11 10  1  0
 11  8  1  0
 11 12  1  1
 13 12  2  0
 14 12  1  0
 15 14  1  0
 16 15  2  0
 17 15  1  0
 18 17  1  0
 19 14  1  0
 20 19  2  0
 21 20  1  0
 22 21  2  0
 23 22  1  0
 24 19  1  0
 24 23  2  0
 25 23  1  0
 26 25  2  0
 27 26  1  0
 28 24  1  0
 28 27  2  0
M  END
$$$$

     RDKit          3D

 20 21  0  0  0  0  0  0  0  0999 V2000
   -8.9990   -0.5990  -21.2640 O   0  0  0  0  0  0  0  0  0  0  0  0
   -8.2280   -1.4300  -21.7390 C   0  0  0  0  0  0  0  0  0  0  0  0
   -6.9950   -1.6980  -21.2470 N   0  0  0  0  0  0  0  0  0  0  0  0
   -6.3480   -1.0510  -20.1620 C   0  0  0  0  0  0  0  0  0  0  0  0
   -5.1980   -0.2680  -20.3950 C   0  0  0  0  0  0  0  0  0  0  0  0
   -4.5890   -0.1240  -21.7650 C   0  0  0  0  0  0  0  0  0  0  0  0
   -4.6360    0.3810  -19.3030 C   0  0  0  0  0  0  0  0  0  0  0  0
   -5.2150    0.2420  -18.0590 C   0  0  0  0  0  0  0  0  0  0  0  0
   -6.2990   -0.5020  -17.8220 N   0  0  0  0  0  0  0  0  0  0  0  0
   -6.8450   -1.1370  -18.8630 C   0  0  0  0  0  0  0  0  0  0  0  0
   -8.6000   -2.2300  -22.9770 C   0  0  0  0  0  0  0  0  0  0  0  0
   -9.9980   -2.0580  -23.3650 N   0  0  2  0  0  0  0  0  0  0  0  0
  -10.7750   -3.2500  -22.9990 C   0  0  0  0  0  0  0  0  0  0  0  0
  -12.2440   -3.0800  -23.3680 C   0  0  0  0  0  0  0  0  0  0  0  0
  -10.1240   -1.8000  -24.8120 C   0  0  0  0  0  0  0  0  0  0  0  0
  -11.5900   -1.6220  -25.2070 C   0  0  0  0  0  0  0  0  0  0  0  0
  -12.3650   -2.8030  -24.8000 N   0  0  0  0  0  0  0  0  0  0  0  0
  -13.0460   -3.6210  -25.6370 C   0  0  0  0  0  0  0  0  0  0  0  0
  -14.1410   -3.3100  -26.0600 O   0  0  0  0  0  0  0  0  0  0  0  0
  -12.4170   -4.9210  -26.0180 C   0  0  0  0  0  0  0  0  0  0  0  0
  2  1  2  0
  3  2  1  0
  4  3  1  0
  5  4  2  0
  6  5  1  0
  7  5  1  0
  8  7  2  0
  9  8  1  0
 10  9  2  0
 10  4  1  0
 11  2  1  0
 12 11  1  6
 13 12  1  0
 14 13  1  0
 15 12  1  0
 16 15  1  0
 17 16  1  0
 17 14  1  0
 18 17  1  0
 19 18  2  0
 20 18  1  0
M  CHG  1  12   1
M  END
$$$$

     RDKit          3D

 28 31  0  0  0  0  0  0  0  0999 V2000
  -14.0290   -2.8700  -21.1490 Cl  0  0  0  0  0  0  0  0  0  0  0  0
  -12.9710   -2.0270  -22.2480 C   0  0  0  0  0  0  0  0  0  0  0  0
  -13.4950   -1.0490  -23.0640 C   0  0  0  0  0  0  0  0  0  0  0  0
  -12.6380   -0.2800  -23.8300 C   0  0  0  0  0  0  0  0  0  0  0  0
  -11.6120   -2.2720  -22.1880 C   0  0  0  0  0  0  0  0  0  0  0  0
  -10.7340   -1.4920  -22.9390 C   0  0  0  0  0  0  0  0  0  0  0  0
  -11.2720   -0.5110  -23.7780 C   0  0  0  0  0  0  0  0  0  0  0  0
  -10.5160    0.2150  -24.6690 O   0  0  0  0  0  0  0  0  0  0  0  0
   -9.0810    0.1620  -24.5220 C   0  0  0  0  0  0  0  0  0  0  0  0
   -8.5770   -1.2080  -24.1460 C   0  0  0  0  0  0  0  0  0  0  0  0
   -9.2330   -1.6650  -22.8380 C   0  0  1  0  0  0  0  0  0  0  0  0
   -8.6600   -0.8970  -21.6430 C   0  0  0  0  0  0  0  0  0  0  0  0
   -9.1070    0.1920  -21.2860 O   0  0  0  0  0  0  0  0  0  0  0  0
   -7.5980   -1.4930  -21.0510 N   0  0  0  0  0  0  0  0  0  0  0  0
   -6.7780   -0.9880  -20.0220 C   0  0  0  0  0  0  0  0  0  0  0  0
   -7.0050   -1.1800  -18.6590 C   0  0  0  0  0  0  0  0  0  0  0  0
   -6.2830   -0.6330  -17.6730 N   0  0  0  0  0  0  0  0  0  0  0  0
   -5.2710    0.1470  -18.0180 C   0  0  0  0  0  0  0  0  0  0  0  0
   -5.6800   -0.1490  -20.3930 C   0  0  0  0  0  0  0  0  0  0  0  0
   -4.9080    0.4410  -19.3540 C   0  0  0  0  0  0  0  0  0  0  0  0
   -3.8370    1.3040  -19.6970 C   0  0  0  0  0  0  0  0  0  0  0  0
   -3.5380    1.5610  -21.0040 C   0  0  0  0  0  0  0  0  0  0  0  0
   -5.3400    0.1400  -21.7370 C   0  0  0  0  0  0  0  0  0  0  0  0
   -4.2850    0.9700  -22.0140 C   0  0  0  0  0  0  0  0  0  0  0  0
   -3.8200    1.2110  -23.7020 S   0  0  1  0  0  0  0  0  0  0  0  0
   -2.4690    0.7500  -23.8640 O   0  0  0  0  0  0  0  0  0  0  0  0
   -4.8380    0.6310  -24.5350 O   0  0  0  0  0  0  0  0  0  0  0  0
   -3.8480    2.9510  -23.9170 C   0  0  0  0  0  0  0  0  0  0  0  0
  2  1  1  0
  3  2  2  0
  4  3  1  0
  5  2  1  0
  6  5  2  0
  7  4  2  0
  7  6  1  0
  8  7  1  0
  9  8  1  0
 10  9  1  0
 11 10  1  0
 11  6  1  0
 11 12  1  1
 13 12  2  0
 14 12  1  0
 15 14  1  0
 16 15  2  0
 17 16  1  0
 18 17  2  0
 19 15  1  0
 20 19  2  0
 20 18  1  0
 21 20  1  0
 22 21  2  0
 23 19  1  0
 24 23  2  0
 24 22  1  0
 25 24  1  0
 26 25  2  0
 27 25  2  0
 25 28  1  6
M  END
$$$$

     RDKit          3D

 27 30  0  0  0  0  0  0  0  0999 V2000
  -13.8830   -2.7290  -21.2940 Cl  0  0  0  0  0  0  0  0  0  0  0  0
  -12.7330   -1.9980  -22.3820 C   0  0  0  0  0  0  0  0  0  0  0  0
  -11.3970   -2.3200  -22.2570 C   0  0  0  0  0  0  0  0  0  0  0  0
  -13.1710   -1.0810  -23.3130 C   0  0  0  0  0  0  0  0  0  0  0  0
  -12.2490   -0.4750  -24.1510 C   0  0  0  0  0  0  0  0  0  0  0  0
  -10.8910   -0.7730  -24.0360 C   0  0  0  0  0  0  0  0  0  0  0  0
   -9.9290   -0.1440  -24.8800 N   0  0  0  0  0  0  0  0  0  0  0  0
  -10.3460    0.6240  -25.9190 C   0  0  0  0  0  0  0  0  0  0  0  0
  -10.7050    1.7920  -25.6920 O   0  0  0  0  0  0  0  0  0  0  0  0
  -10.3850    0.0480  -27.1280 N   0  0  0  0  0  0  0  0  0  0  0  0
  -10.4520   -1.6930  -23.0680 C   0  0  0  0  0  0  0  0  0  0  0  0
   -8.9790   -1.9630  -22.8400 C   0  0  1  0  0  0  0  0  0  0  0  0
   -8.1580   -1.6690  -24.0980 C   0  0  0  0  0  0  0  0  0  0  0  0
   -8.4870   -0.2820  -24.6140 C   0  0  0  0  0  0  0  0  0  0  0  0
   -8.4730   -1.1270  -21.6640 C   0  0  0  0  0  0  0  0  0  0  0  0
   -9.0270   -0.0790  -21.3180 O   0  0  0  0  0  0  0  0  0  0  0  0
   -7.3760   -1.6290  -21.0500 N   0  0  0  0  0  0  0  0  0  0  0  0
   -6.6530   -1.0590  -19.9860 C   0  0  0  0  0  0  0  0  0  0  0  0
   -5.5560   -0.1980  -20.2950 C   0  0  0  0  0  0  0  0  0  0  0  0
   -5.0830    0.0370  -21.6120 C   0  0  0  0  0  0  0  0  0  0  0  0
   -4.0370    0.8860  -21.8430 C   0  0  0  0  0  0  0  0  0  0  0  0
   -3.4160    1.5470  -20.7920 C   0  0  0  0  0  0  0  0  0  0  0  0
   -3.8280    1.3470  -19.5060 C   0  0  0  0  0  0  0  0  0  0  0  0
   -4.8990    0.4660  -19.2190 C   0  0  0  0  0  0  0  0  0  0  0  0
   -5.3560    0.1990  -17.9050 C   0  0  0  0  0  0  0  0  0  0  0  0
   -6.3650   -0.6130  -17.6160 N   0  0  0  0  0  0  0  0  0  0  0  0
   -6.9890   -1.2150  -18.6410 C   0  0  0  0  0  0  0  0  0  0  0  0
  2  1  1  0
  3  2  2  0
  4  2  1  0
  5  4  2  0
  6  5  1  0
  7  6  1  0
  8  7  1  0
  9  8  2  0
 10  8  1  0
 11  3  1  0
 11  6  2  0
 12 11  1  0
 13 12  1  0
 14 13  1  0
 14  7  1  0
 12 15  1  1
 16 15  2  0
 17 15  1  0
 18 17  1  0
 19 18  1  0
 20 19  2  0
 21 20  1  0
 22 21  2  0
 23 22  1  0
 24 19  1  0
 24 23  2  0
 25 24  1  0
 26 25  2  0
 27 26  1  0
 27 18  2  0
M  END
$$$$

     RDKit          3D

 13 13  0  0  0  0  0  0  0  0999 V2000
   -7.1700    1.9520    6.2780 N   0  0  0  0  0  0  0  0  0  0  0  0
   -4.6490   -2.6710    8.2100 C   0  0  0  0  0  0  0  0  0  0  0  0
   -4.9080    1.6160    5.5380 O   0  0  0  0  0  0  0  0  0  0  0  0
   -6.0970   -2.4560    7.9670 C   0  0  0  0  0  0  0  0  0  0  0  0
   -6.9430   -3.5460    8.1850 C   0  0  0  0  0  0  0  0  0  0  0  0
   -8.3170   -3.3940    7.9990 C   0  0  0  0  0  0  0  0  0  0  0  0
   -8.8740   -2.1740    7.5810 C   0  0  0  0  0  0  0  0  0  0  0  0
   -8.0260   -1.0940    7.3630 C   0  0  0  0  0  0  0  0  0  0  0  0
   -6.6370   -1.2060    7.5560 C   0  0  0  0  0  0  0  0  0  0  0  0
   -5.8090    0.0470    7.3670 C   0  0  0  0  0  0  0  0  0  0  0  0
   -9.1220   -4.4200    8.2560 F   0  0  0  0  0  0  0  0  0  0  0  0
   -6.6530   -0.0230    4.9270 O   0  0  0  0  0  0  0  0  0  0  0  0
   -6.0600    0.8590    5.8620 S   0  0  1  0  0  0  0  0  0  0  0  0
  4  2  1  0
  5  4  2  0
  6  5  1  0
  7  6  2  0
  8  7  1  0
  9  8  2  0
  9  4  1  0
 10  9  1  0
 11  6  1  0
 13 12  2  0
 13 10  1  0
 13  1  1  1
 13  3  2  0
M  END
$$$$

     RDKit          3D

 22 24  0  0  0  0  0  0  0  0999 V2000
   -6.4450   -0.5070  -17.8340 N   0  0  0  0  0  0  0  0  0  0  0  0
   -5.2780   -0.3500  -20.3870 C   0  0  0  0  0  0  0  0  0  0  0  0
  -10.1030   -1.6640  -23.2600 C   0  0  0  0  0  0  0  0  0  0  0  0
   -6.1930   -3.6260  -24.7410 O   0  0  0  0  0  0  0  0  0  0  0  0
   -7.7340   -1.6700  -24.4320 C   0  0  0  0  0  0  0  0  0  0  0  0
   -4.7180    0.2960  -19.2910 C   0  0  0  0  0  0  0  0  0  0  0  0
  -11.0000   -2.3830  -22.4770 C   0  0  0  0  0  0  0  0  0  0  0  0
   -8.1640   -1.2400  -21.8330 C   0  0  0  0  0  0  0  0  0  0  0  0
   -6.4430   -1.1110  -20.1590 C   0  0  0  0  0  0  0  0  0  0  0  0
   -6.9790   -1.1590  -18.8730 C   0  0  0  0  0  0  0  0  0  0  0  0
  -11.9470   -0.3950  -24.1680 C   0  0  0  0  0  0  0  0  0  0  0  0
   -8.1910   -3.4550  -23.2330 C   0  0  0  0  0  0  0  0  0  0  0  0
   -7.1430   -3.0560  -24.2570 C   0  0  0  0  0  0  0  0  0  0  0  0
  -10.5880   -0.6730  -24.1100 C   0  0  0  0  0  0  0  0  0  0  0  0
  -12.8410   -1.1100  -23.3840 C   0  0  0  0  0  0  0  0  0  0  0  0
   -4.6980   -0.1690  -21.7680 C   0  0  0  0  0  0  0  0  0  0  0  0
   -7.0690   -1.7560  -21.2460 N   0  0  0  0  0  0  0  0  0  0  0  0
   -8.7660   -0.2640  -21.3970 O   0  0  0  0  0  0  0  0  0  0  0  0
   -8.6050   -1.9290  -23.1370 C   0  0  1  0  0  0  0  0  0  0  0  0
   -5.3300    0.1990  -18.0550 C   0  0  0  0  0  0  0  0  0  0  0  0
  -12.3490   -2.1010  -22.5550 C   0  0  0  0  0  0  0  0  0  0  0  0
  -13.4570   -3.0510  -21.6090 Cl  0  0  0  0  0  0  0  0  0  0  0  0
  6  2  1  0
  7  3  2  0
  9  2  2  0
 10  9  1  0
 10  1  2  0
 13 12  1  0
 13  5  1  0
 13  4  2  0
 14 11  2  0
 14  3  1  0
 15 11  1  0
 16  2  1  0
 17  8  1  0
 17  9  1  0
 18  8  2  0
 19 12  1  0
 19  8  1  1
 19  5  1  0
 19  3  1  0
 20  1  1  0
 20  6  2  0
 21 15  2  0
 21  7  1  0
 22 21  1  0
M  END
$$$$

     RDKit          3D

 33 35  0  0  0  0  0  0  0  0999 V2000
   -8.8080    0.2770  -21.3740 O   0  0  0  0  0  0  0  0  0  0  0  0
   -7.7650    0.1600  -22.0160 C   0  0  0  0  0  0  0  0  0  0  0  0
   -6.7510   -0.9440  -21.6780 C   0  0  1  0  0  0  0  0  0  0  0  0
   -6.1420   -0.7440  -20.3020 C   0  0  0  0  0  0  0  0  0  0  0  0
   -4.9580   -0.0380  -20.1450 C   0  0  0  0  0  0  0  0  0  0  0  0
   -4.5370    0.3370  -18.8820 C   0  0  0  0  0  0  0  0  0  0  0  0
   -5.3150   -0.0240  -17.8000 C   0  0  0  0  0  0  0  0  0  0  0  0
   -6.4450   -0.7310  -17.9100 N   0  0  0  0  0  0  0  0  0  0  0  0
   -6.8290   -1.0810  -19.1450 C   0  0  0  0  0  0  0  0  0  0  0  0
   -7.1920   -2.3100  -22.0290 N   0  0  0  0  0  0  0  0  0  0  0  0
   -8.3830   -2.4260  -22.7700 C   0  0  0  0  0  0  0  0  0  0  0  0
   -8.3700   -2.3270  -24.1040 N   0  0  0  0  0  0  0  0  0  0  0  0
   -9.6280   -2.3820  -24.6300 N   0  0  0  0  0  0  0  0  0  0  0  0
  -10.4270   -2.5320  -23.5760 C   0  0  0  0  0  0  0  0  0  0  0  0
  -11.9300   -2.6500  -23.7740 C   0  0  2  0  0  0  0  0  0  0  0  0
  -12.6100   -2.9140  -22.4280 C   0  0  0  0  0  0  0  0  0  0  0  0
  -12.2430   -3.7970  -24.7380 C   0  0  0  0  0  0  0  0  0  0  0  0
  -12.4820   -1.3600  -24.3810 C   0  0  0  0  0  0  0  0  0  0  0  0
   -9.6900   -2.5670  -22.3780 C   0  0  0  0  0  0  0  0  0  0  0  0
   -6.4210   -3.4320  -21.7250 C   0  0  0  0  0  0  0  0  0  0  0  0
   -5.2620   -3.2720  -21.3890 O   0  0  0  0  0  0  0  0  0  0  0  0
   -7.0510   -4.7940  -21.7700 C   0  0  0  0  0  0  0  0  0  0  0  0
   -6.8390   -5.5040  -20.4730 C   0  0  0  0  0  0  0  0  0  0  0  0
   -7.3710    0.9960  -23.0000 N   0  0  0  0  0  0  0  0  0  0  0  0
   -8.0090    2.2420  -23.2600 C   0  0  0  0  0  0  0  0  0  0  0  0
   -7.4120    3.4160  -22.7840 C   0  0  0  0  0  0  0  0  0  0  0  0
   -6.0590    3.4000  -22.1180 C   0  0  0  0  0  0  0  0  0  0  0  0
   -8.0820    4.6180  -22.9930 C   0  0  0  0  0  0  0  0  0  0  0  0
   -9.2790    4.6620  -23.6840 C   0  0  0  0  0  0  0  0  0  0  0  0
   -9.8450    3.4940  -24.1670 C   0  0  0  0  0  0  0  0  0  0  0  0
   -9.2290    2.2630  -23.9560 C   0  0  0  0  0  0  0  0  0  0  0  0
   -9.8940    0.9990  -24.4580 C   0  0  0  0  0  0  0  0  0  0  0  0
   -9.1850    0.2840  -25.6060 C   0  0  0  0  0  0  0  0  0  0  0  0
  2  1  2  0
  3  2  1  0
  4  3  1  0
  5  4  2  0
  6  5  1  0
  7  6  2  0
  8  7  1  0
  9  8  2  0
  9  4  1  0
  3 10  1  1
 11 10  1  0
 12 11  1  0
 13 12  1  0
 14 13  2  0
 15 14  1  0
 15 16  1  1
 17 15  1  0
 18 15  1  0
 19 14  1  0
 19 11  2  0
 20 10  1  0
 21 20  2  0
 22 20  1  0
 23 22  1  0
 24  2  1  0
 25 24  1  0
 26 25  2  0
 27 26  1  0
 28 26  1  0
 29 28  2  0
 30 29  1  0
 31 30  2  0
 31 25  1  0
 32 31  1  0
 33 32  1  0
M  END
$$$$

     RDKit          3D

 22 23  0  0  0  0  0  0  0  0999 V2000
  -13.6940   -2.8390  -21.3460 Cl  0  0  0  0  0  0  0  0  0  0  0  0
  -12.6590   -1.8740  -22.3640 C   0  0  0  0  0  0  0  0  0  0  0  0
  -13.2260   -0.9690  -23.2350 C   0  0  0  0  0  0  0  0  0  0  0  0
  -12.3980   -0.2610  -24.0910 C   0  0  0  0  0  0  0  0  0  0  0  0
  -11.0250   -0.4540  -24.0530 C   0  0  0  0  0  0  0  0  0  0  0  0
  -11.2920   -2.0660  -22.3020 C   0  0  0  0  0  0  0  0  0  0  0  0
  -10.4580   -1.3430  -23.1490 C   0  0  0  0  0  0  0  0  0  0  0  0
   -8.9460   -1.5220  -23.0730 C   0  0  2  0  0  0  0  0  0  0  0  0
   -8.5370   -2.9050  -23.6160 C   0  0  0  0  0  0  0  0  0  0  0  0
   -8.4350   -0.9450  -21.7420 C   0  0  0  0  0  0  0  0  0  0  0  0
   -8.9160    0.0750  -21.2630 O   0  0  0  0  0  0  0  0  0  0  0  0
   -7.3660   -1.5780  -21.1840 N   0  0  0  0  0  0  0  0  0  0  0  0
   -6.6180   -1.0810  -20.0950 C   0  0  0  0  0  0  0  0  0  0  0  0
   -5.4280   -0.3780  -20.3340 C   0  0  0  0  0  0  0  0  0  0  0  0
   -4.9580   -0.2650  -21.6650 N   0  0  0  0  0  0  0  0  0  0  0  0
   -3.7710    0.2060  -22.1200 C   0  0  0  0  0  0  0  0  0  0  0  0
   -3.6070    0.1630  -23.6100 C   0  0  0  0  0  0  0  0  0  0  0  0
   -2.8810    0.6240  -21.3790 O   0  0  0  0  0  0  0  0  0  0  0  0
   -4.7640    0.2100  -19.2610 C   0  0  0  0  0  0  0  0  0  0  0  0
   -5.3200    0.0730  -18.0060 C   0  0  0  0  0  0  0  0  0  0  0  0
   -6.4540   -0.5940  -17.7540 N   0  0  0  0  0  0  0  0  0  0  0  0
   -7.0790   -1.1660  -18.7860 C   0  0  0  0  0  0  0  0  0  0  0  0
  2  1  1  0
  3  2  2  0
  4  3  1  0
  5  4  2  0
  6  2  1  0
  7  6  2  0
  7  5  1  0
  8  7  1  0
  8  9  1  1
 10  8  1  0
 11 10  2  0
 12 10  1  0
 13 12  1  0
 14 13  2  0
 15 14  1  0
 16 15  1  0
 17 16  1  0
 18 16  2  0
 19 14  1  0
 20 19  2  0
 21 20  1  0
 22 21  2  0
 22 13  1  0
M  END
$$$$

     RDKit          3D

 16 17  0  0  0  0  0  0  0  0999 V2000
   -6.5830   -5.5340  -21.1010 N   0  0  0  0  0  0  0  0  0  0  0  0
   -7.4690   -3.7470  -19.7040 C   0  0  0  0  0  0  0  0  0  0  0  0
   -5.3550   -4.8020  -19.3570 O   0  0  0  0  0  0  0  0  0  0  0  0
   -6.3710   -4.7230  -20.0540 C   0  0  0  0  0  0  0  0  0  0  0  0
  -10.3900   -1.8300  -24.0320 C   0  0  0  0  0  0  0  0  0  0  0  0
   -7.4060   -4.0420  -22.7590 C   0  0  0  0  0  0  0  0  0  0  0  0
   -8.6590   -3.3240  -23.0720 C   0  0  0  0  0  0  0  0  0  0  0  0
   -9.8750   -3.3120  -22.3230 C   0  0  0  0  0  0  0  0  0  0  0  0
  -10.8320   -2.4480  -22.9030 C   0  0  0  0  0  0  0  0  0  0  0  0
  -12.2070   -2.1870  -22.3780 C   0  0  0  0  0  0  0  0  0  0  0  0
  -13.0590   -1.4280  -23.3850 C   0  0  0  0  0  0  0  0  0  0  0  0
  -12.3160   -0.3140  -24.0240 C   0  0  0  0  0  0  0  0  0  0  0  0
  -11.1710   -0.8450  -24.8510 C   0  0  0  0  0  0  0  0  0  0  0  0
   -7.4840   -5.2080  -22.0970 N   0  0  0  0  0  0  0  0  0  0  0  0
   -6.3170   -3.5390  -23.0410 O   0  0  0  0  0  0  0  0  0  0  0  0
   -8.7800   -2.2790  -24.4700 S   0  0  0  0  0  0  0  0  0  0  0  0
  4  1  1  0
  4  2  1  0
  4  3  2  0
  7  6  1  0
  8  7  2  0
  9  8  1  0
  9  5  2  0
 10  9  1  0
 11 10  1  0
 12 11  1  0
 13 12  1  0
 13  5  1  0
 14  1  1  0
 14  6  1  0
 15  6  2  0
 16  7  1  0
 16  5  1  0
M  END
$$$$

     RDKit          3D

 16 17  0  0  0  0  0  0  0  0999 V2000
  -22.1170  -19.0590  -24.6480 C   0  0  0  0  0  0  0  0  0  0  0  0
  -20.9720  -20.9710  -24.4500 C   0  0  0  0  0  0  0  0  0  0  0  0
  -21.0510  -22.4630  -24.0890 C   0  0  0  0  0  0  0  0  0  0  0  0
  -22.9840  -22.0210  -22.8410 C   0  0  0  0  0  0  0  0  0  0  0  0
  -22.8340  -20.5320  -23.1190 C   0  0  0  0  0  0  0  0  0  0  0  0
  -21.2040  -23.5980  -21.8300 C   0  0  0  0  0  0  0  0  0  0  0  0
  -21.3760  -24.6930  -19.5510 C   0  0  0  0  0  0  0  0  0  0  0  0
  -20.9740  -25.9870  -19.8350 C   0  0  0  0  0  0  0  0  0  0  0  0
  -20.4810  -26.7980  -18.8200 C   0  0  0  0  0  0  0  0  0  0  0  0
  -20.3950  -26.3170  -17.5200 C   0  0  0  0  0  0  0  0  0  0  0  0
  -20.8020  -25.0180  -17.2340 C   0  0  0  0  0  0  0  0  0  0  0  0
  -21.2960  -24.2090  -18.2500 C   0  0  0  0  0  0  0  0  0  0  0  0
  -22.1960  -20.2900  -24.3420 N   0  0  1  0  0  0  0  0  0  0  0  0
  -21.7380  -22.7200  -22.8700 N   0  0  0  0  0  0  0  0  0  0  0  0
  -21.9120  -23.8300  -20.5890 N   0  0  0  0  0  0  0  0  0  0  0  0
  -20.1530  -24.1170  -21.9910 O   0  0  0  0  0  0  0  0  0  0  0  0
  3  2  1  0
  5  4  1  0
  8  7  2  0
  9  8  1  0
 10  9  2  0
 11 10  1  0
 12 11  2  0
 12  7  1  0
 13  5  1  0
 13  1  1  1
 13  2  1  0
 14  4  1  0
 14  6  1  0
 14  3  1  0
 15  6  1  0
 15  7  1  0
 16  6  2  0
M  CHG  1  13   1
M  END
$$$$

     RDKit          3D

 22 25  0  0  0  0  0  0  0  0999 V2000
   -8.2860   -0.1890  -21.4110 O   0  0  0  0  0  0  0  0  0  0  0  0
   -7.9270   -1.3660  -21.4320 C   0  0  0  0  0  0  0  0  0  0  0  0
   -8.4180   -2.3520  -22.4920 C   0  0  1  0  0  0  0  0  0  0  0  0
   -9.8950   -2.7280  -22.2540 C   0  0  0  0  0  0  0  0  0  0  0  0
  -10.8050   -1.9430  -23.1660 C   0  0  0  0  0  0  0  0  0  0  0  0
  -10.4180   -2.0890  -24.5420 O   0  0  0  0  0  0  0  0  0  0  0  0
   -8.1210   -1.7370  -23.8470 C   0  0  0  0  0  0  0  0  0  0  0  0
   -9.1370   -1.6670  -24.8010 C   0  0  0  0  0  0  0  0  0  0  0  0
   -8.9180   -1.1070  -26.0490 C   0  0  0  0  0  0  0  0  0  0  0  0
   -7.6810   -0.5660  -26.3470 C   0  0  0  0  0  0  0  0  0  0  0  0
   -6.8760   -1.1910  -24.1660 C   0  0  0  0  0  0  0  0  0  0  0  0
   -6.6820   -0.6030  -25.4000 C   0  0  0  0  0  0  0  0  0  0  0  0
   -5.1450    0.1400  -25.7560 Cl  0  0  0  0  0  0  0  0  0  0  0  0
   -7.2430   -1.9290  -20.4070 N   0  0  0  0  0  0  0  0  0  0  0  0
   -6.4990   -1.4420  -19.3850 C   0  0  0  0  0  0  0  0  0  0  0  0
   -5.5730   -0.4350  -19.5490 N   0  0  0  0  0  0  0  0  0  0  0  0
   -5.3100    0.0080  -18.2840 C   0  0  0  0  0  0  0  0  0  0  0  0
   -5.9860   -0.6660  -17.4030 N   0  0  0  0  0  0  0  0  0  0  0  0
   -6.7370   -1.6080  -18.0950 N   0  0  0  0  0  0  0  0  0  0  0  0
   -4.9130   -0.0220  -20.8090 C   0  0  2  0  0  0  0  0  0  0  0  0
   -3.6970    0.8350  -20.7250 C   0  0  0  0  0  0  0  0  0  0  0  0
   -4.9870    1.4080  -21.2190 C   0  0  0  0  0  0  0  0  0  0  0  0
  2  1  2  0
  3  2  1  1
  4  3  1  0
  5  4  1  0
  6  5  1  0
  7  3  1  0
  8  7  2  0
  8  6  1  0
  9  8  1  0
 10  9  2  0
 11  7  1  0
 12 11  2  0
 12 10  1  0
 13 12  1  0
 14  2  1  0
 15 14  1  0
 16 15  1  0
 17 16  1  0
 18 17  2  0
 19 18  1  0
 19 15  2  0
 20 16  1  1
 21 20  1  0
 22 21  1  0
 22 20  1  0
M  END
$$$$

     RDKit          3D

 21 23  0  0  0  0  0  0  0  0999 V2000
   -6.2730    0.1920  -17.1630 O   0  0  0  0  0  0  0  0  0  0  0  0
   -5.7690   -0.0650  -18.2510 C   0  0  0  0  0  0  0  0  0  0  0  0
   -4.6060    0.4650  -18.6250 N   0  0  0  0  0  0  0  0  0  0  0  0
   -4.1310    0.6790  -20.0080 C   0  0  0  0  0  0  0  0  0  0  0  0
   -4.8200   -0.2770  -20.9700 C   0  0  0  0  0  0  0  0  0  0  0  0
   -6.4780   -0.9480  -19.2350 C   0  0  0  0  0  0  0  0  0  0  0  0
   -6.2990   -0.3840  -20.6430 C   0  0  2  0  0  0  0  0  0  0  0  0
   -7.0220   -1.1820  -21.6310 N   0  0  0  0  0  0  0  0  0  0  0  0
   -8.2550   -0.8650  -22.0360 C   0  0  0  0  0  0  0  0  0  0  0  0
   -8.9160    0.0210  -21.5010 O   0  0  0  0  0  0  0  0  0  0  0  0
   -8.7580   -1.6390  -23.2570 C   0  0  2  0  0  0  0  0  0  0  0  0
   -8.0860   -1.0930  -24.5280 C   0  0  0  0  0  0  0  0  0  0  0  0
   -8.7010    0.2290  -24.9080 C   0  0  0  0  0  0  0  0  0  0  0  0
  -10.1090    0.0920  -25.1800 O   0  0  0  0  0  0  0  0  0  0  0  0
  -10.2650   -1.4840  -23.3250 C   0  0  0  0  0  0  0  0  0  0  0  0
  -11.1160   -2.1910  -22.4730 C   0  0  0  0  0  0  0  0  0  0  0  0
  -12.4780   -1.9640  -22.5230 C   0  0  0  0  0  0  0  0  0  0  0  0
  -13.5230   -2.8570  -21.4580 Cl  0  0  0  0  0  0  0  0  0  0  0  0
  -10.8350   -0.5750  -24.2230 C   0  0  0  0  0  0  0  0  0  0  0  0
  -12.2020   -0.3470  -24.2470 C   0  0  0  0  0  0  0  0  0  0  0  0
  -13.0290   -1.0480  -23.3910 C   0  0  0  0  0  0  0  0  0  0  0  0
  2  1  2  0
  3  2  1  0
  4  3  1  0
  5  4  1  0
  6  2  1  0
  7  6  1  0
  7  5  1  0
  7  8  1  6
  9  8  1  0
 10  9  2  0
 11  9  1  1
 12 11  1  0
 13 12  1  0
 14 13  1  0
 15 11  1  0
 16 15  1  0
 17 16  2  0
 18 17  1  0
 19 15  2  0
 19 14  1  0
 20 19  1  0
 21 20  2  0
 21 17  1  0
M  END
$$$$

     RDKit          3D

 38 42  0  0  0  0  0  0  0  0999 V2000
   -8.3110    5.5370  -23.0500 N   0  0  0  0  0  0  0  0  0  0  0  0
   -7.5920    4.6550  -23.0070 C   0  0  0  0  0  0  0  0  0  0  0  0
   -6.6860    3.5060  -22.8860 C   0  0  1  0  0  0  0  0  0  0  0  0
   -5.2870    3.6120  -23.4550 C   0  0  0  0  0  0  0  0  0  0  0  0
   -5.4840    3.7060  -21.9900 C   0  0  0  0  0  0  0  0  0  0  0  0
   -7.4050    2.1620  -22.9140 C   0  0  0  0  0  0  0  0  0  0  0  0
   -7.7300    1.4850  -24.5300 S   0  0  2  0  0  0  0  0  0  0  0  0
   -6.5420    0.8460  -25.0000 O   0  0  0  0  0  0  0  0  0  0  0  0
   -8.3310    2.5120  -25.3230 O   0  0  0  0  0  0  0  0  0  0  0  0
   -8.8440    0.3250  -24.3180 N   0  0  0  0  0  0  0  0  0  0  0  0
   -8.4830   -1.1050  -24.2840 C   0  0  0  0  0  0  0  0  0  0  0  0
  -10.2420    0.6080  -24.6650 C   0  0  0  0  0  0  0  0  0  0  0  0
  -11.1670   -0.2670  -23.8480 C   0  0  0  0  0  0  0  0  0  0  0  0
  -10.6980   -1.3990  -23.1570 C   0  0  0  0  0  0  0  0  0  0  0  0
  -11.6040   -2.1900  -22.4460 C   0  0  0  0  0  0  0  0  0  0  0  0
  -12.9280   -1.8080  -22.3670 C   0  0  0  0  0  0  0  0  0  0  0  0
  -14.0110   -2.7140  -21.3490 Cl  0  0  0  0  0  0  0  0  0  0  0  0
  -13.3990   -0.6910  -23.0210 C   0  0  0  0  0  0  0  0  0  0  0  0
  -12.5190    0.0650  -23.7730 C   0  0  0  0  0  0  0  0  0  0  0  0
   -9.2040   -1.6610  -23.0550 C   0  0  2  0  0  0  0  0  0  0  0  0
   -8.6090   -1.0200  -21.7960 C   0  0  0  0  0  0  0  0  0  0  0  0
   -9.1390   -0.0560  -21.2480 O   0  0  0  0  0  0  0  0  0  0  0  0
   -7.4390   -1.5660  -21.3630 N   0  0  0  0  0  0  0  0  0  0  0  0
   -6.6280   -1.1310  -20.2820 C   0  0  0  0  0  0  0  0  0  0  0  0
   -7.0230   -1.1790  -18.9440 C   0  0  0  0  0  0  0  0  0  0  0  0
   -6.3730   -0.6000  -17.9220 N   0  0  0  0  0  0  0  0  0  0  0  0
   -5.2710    0.0830  -18.2040 C   0  0  0  0  0  0  0  0  0  0  0  0
   -4.7250    0.2140  -19.5050 C   0  0  0  0  0  0  0  0  0  0  0  0
   -5.4010   -0.4470  -20.5740 C   0  0  0  0  0  0  0  0  0  0  0  0
   -4.8090   -0.4090  -21.8590 C   0  0  0  0  0  0  0  0  0  0  0  0
   -3.6490    0.2680  -22.0780 C   0  0  0  0  0  0  0  0  0  0  0  0
   -3.5460    0.9530  -19.7840 C   0  0  0  0  0  0  0  0  0  0  0  0
   -3.0320    0.9970  -21.0650 C   0  0  0  0  0  0  0  0  0  0  0  0
   -1.8980    1.8040  -21.4150 N   0  0  0  0  0  0  0  0  0  0  0  0
   -1.0640    2.8460  -20.4770 S   0  0  1  0  0  0  0  0  0  0  0  0
   -1.8510    4.0410  -20.4490 O   0  0  0  0  0  0  0  0  0  0  0  0
   -0.7450    2.2050  -19.2400 O   0  0  0  0  0  0  0  0  0  0  0  0
    0.4310    3.1910  -21.3210 C   0  0  0  0  0  0  0  0  0  0  0  0
  2  1  3  0
  3  2  1  6
  4  3  1  0
  5  3  1  0
  5  4  1  0
  6  3  1  0
  7  6  1  1
  8  7  2  0
  9  7  2  0
 10  7  1  0
 11 10  1  0
 12 10  1  0
 13 12  1  0
 14 13  2  0
 15 14  1  0
 16 15  2  0
 17 16  1  0
 18 16  1  0
 19 18  2  0
 19 13  1  0
 20 14  1  0
 20 11  1  0
 20 21  1  1
 22 21  2  0
 23 21  1  0
 24 23  1  0
 25 24  2  0
 26 25  1  0
 27 26  2  0
 28 27  1  0
 29 24  1  0
 29 28  2  0
 30 29  1  0
 31 30  2  0
 32 28  1  0
 33 31  1  0
 33 32  2  0
 34 33  1  0
 35 34  1  0
 36 35  2  0
 37 35  2  0
 35 38  1  6
M  END
$$$$

     RDKit          3D

 21 23  0  0  0  0  0  0  0  0999 V2000
   -8.8650   -0.2240  -21.2160 O   0  0  0  0  0  0  0  0  0  0  0  0
   -8.2830   -1.2430  -21.5850 C   0  0  0  0  0  0  0  0  0  0  0  0
   -8.8310   -2.1360  -22.6800 C   0  0  0  0  0  0  0  0  0  0  0  0
  -10.2900   -1.8710  -22.9710 C   0  0  0  0  0  0  0  0  0  0  0  0
  -11.2830   -2.5740  -22.3090 C   0  0  0  0  0  0  0  0  0  0  0  0
  -12.6230   -2.3320  -22.5590 C   0  0  0  0  0  0  0  0  0  0  0  0
  -10.6660   -0.9120  -23.9040 C   0  0  0  0  0  0  0  0  0  0  0  0
  -12.0010   -0.6580  -24.1700 C   0  0  0  0  0  0  0  0  0  0  0  0
  -12.9440   -1.3800  -23.4910 C   0  0  0  0  0  0  0  0  0  0  0  0
  -14.2520   -1.1920  -23.8000 F   0  0  0  0  0  0  0  0  0  0  0  0
   -7.1150   -1.6650  -21.0610 N   0  0  0  0  0  0  0  0  0  0  0  0
   -6.4060   -1.0890  -19.9990 C   0  0  0  0  0  0  0  0  0  0  0  0
   -5.3190   -0.2120  -20.3000 C   0  0  0  0  0  0  0  0  0  0  0  0
   -4.8260    0.0130  -21.6130 C   0  0  0  0  0  0  0  0  0  0  0  0
   -3.7950    0.8800  -21.8370 C   0  0  0  0  0  0  0  0  0  0  0  0
   -3.2000    1.5600  -20.7810 C   0  0  0  0  0  0  0  0  0  0  0  0
   -3.6310    1.3680  -19.5000 C   0  0  0  0  0  0  0  0  0  0  0  0
   -4.7000    0.4770  -19.2230 C   0  0  0  0  0  0  0  0  0  0  0  0
   -5.1960    0.2420  -17.9180 C   0  0  0  0  0  0  0  0  0  0  0  0
   -6.2000   -0.5790  -17.6370 N   0  0  0  0  0  0  0  0  0  0  0  0
   -6.7780   -1.2250  -18.6610 C   0  0  0  0  0  0  0  0  0  0  0  0
  2  1  2  0
  3  2  1  0
  4  3  1  0
  5  4  2  0
  6  5  1  0
  7  4  1  0
  8  7  2  0
  9  8  1  0
  9  6  2  0
 10  9  1  0
 11  2  1  0
 12 11  1  0
 13 12  1  0
 14 13  2  0
 15 14  1  0
 16 15  2  0
 17 16  1  0
 18 17  2  0
 18 13  1  0
 19 18  1  0
 20 19  2  0
 21 20  1  0
 21 12  2  0
M  END
$$$$

     RDKit          3D

 21 23  0  0  0  0  0  0  0  0999 V2000
   -8.8850   -0.1250  -21.2280 O   0  0  0  0  0  0  0  0  0  0  0  0
   -8.3450   -1.1930  -21.5270 C   0  0  0  0  0  0  0  0  0  0  0  0
   -8.9150   -2.1240  -22.5800 C   0  0  0  0  0  0  0  0  0  0  0  0
  -10.3570   -1.8160  -22.9120 C   0  0  0  0  0  0  0  0  0  0  0  0
  -10.6920   -0.7830  -23.7730 C   0  0  0  0  0  0  0  0  0  0  0  0
  -11.9510   -0.4030  -24.0400 N   0  0  0  0  0  0  0  0  0  0  0  0
  -12.9460   -1.0690  -23.4380 C   0  0  0  0  0  0  0  0  0  0  0  0
  -11.3980   -2.5060  -22.3050 C   0  0  0  0  0  0  0  0  0  0  0  0
  -12.6960   -2.1180  -22.5570 C   0  0  0  0  0  0  0  0  0  0  0  0
  -13.9990   -2.8860  -21.6890 Cl  0  0  0  0  0  0  0  0  0  0  0  0
   -7.2090   -1.6380  -20.9580 N   0  0  0  0  0  0  0  0  0  0  0  0
   -6.4580   -1.0310  -19.9350 C   0  0  0  0  0  0  0  0  0  0  0  0
   -5.3540   -0.1960  -20.2920 C   0  0  0  0  0  0  0  0  0  0  0  0
   -4.8900   -0.0220  -21.6240 C   0  0  0  0  0  0  0  0  0  0  0  0
   -3.8310    0.7980  -21.8980 C   0  0  0  0  0  0  0  0  0  0  0  0
   -3.1860    1.4890  -20.8740 C   0  0  0  0  0  0  0  0  0  0  0  0
   -3.5980    1.3550  -19.5790 C   0  0  0  0  0  0  0  0  0  0  0  0
   -4.6860    0.5060  -19.2510 C   0  0  0  0  0  0  0  0  0  0  0  0
   -5.1500    0.3130  -17.9270 C   0  0  0  0  0  0  0  0  0  0  0  0
   -6.1650   -0.4740  -17.5970 N   0  0  0  0  0  0  0  0  0  0  0  0
   -6.7940   -1.1210  -18.5840 C   0  0  0  0  0  0  0  0  0  0  0  0
  2  1  2  0
  3  2  1  0
  4  3  1  0
  5  4  2  0
  6  5  1  0
  7  6  2  0
  8  4  1  0
  9  8  2  0
  9  7  1  0
 10  9  1  0
 11  2  1  0
 12 11  1  0
 13 12  1  0
 14 13  2  0
 15 14  1  0
 16 15  2  0
 17 16  1  0
 18 17  2  0
 18 13  1  0
 19 18  1  0
 20 19  2  0
 21 20  1  0
 21 12  2  0
M  END
$$$$

     RDKit          3D

 25 27  0  0  0  0  0  0  0  0999 V2000
  -11.2420   -2.5970  -23.2450 C   0  0  0  0  0  0  0  0  0  0  0  0
   -4.2340    0.5440  -19.9370 C   0  0  0  0  0  0  0  0  0  0  0  0
   -5.4870   -2.7850  -21.0400 C   0  0  0  0  0  0  0  0  0  0  0  0
   -5.3440   -1.5930  -20.1260 C   0  0  0  0  0  0  0  0  0  0  0  0
   -8.6470   -1.9070  -22.3800 C   0  0  0  0  0  0  0  0  0  0  0  0
   -7.1830   -1.5040  -22.3670 C   0  0  0  0  0  0  0  0  0  0  0  0
   -8.0360   -4.1720  -23.0940 C   0  0  0  0  0  0  0  0  0  0  0  0
   -6.5620   -3.8040  -22.9760 C   0  0  0  0  0  0  0  0  0  0  0  0
  -10.1270   -3.2220  -23.8400 C   0  0  0  0  0  0  0  0  0  0  0  0
  -10.3400   -4.0840  -24.9340 C   0  0  0  0  0  0  0  0  0  0  0  0
  -11.6230   -4.3070  -25.4110 C   0  0  0  0  0  0  0  0  0  0  0  0
  -12.7350   -3.6990  -24.8370 C   0  0  0  0  0  0  0  0  0  0  0  0
   -4.8290   -3.8030  -20.7830 O   0  0  0  0  0  0  0  0  0  0  0  0
  -12.5120   -2.8460  -23.7490 C   0  0  0  0  0  0  0  0  0  0  0  0
   -5.7750   -0.2340  -18.1590 C   0  0  0  0  0  0  0  0  0  0  0  0
   -5.9960   -1.4360  -18.9450 C   0  0  0  0  0  0  0  0  0  0  0  0
   -4.5050   -0.6210  -20.6200 N   0  0  0  0  0  0  0  0  0  0  0  0
   -4.8900    0.6760  -18.7220 N   0  0  0  0  0  0  0  0  0  0  0  0
   -6.3700   -2.6810  -22.0500 N   0  0  0  0  0  0  0  0  0  0  0  0
   -8.8370   -2.9920  -23.3650 N   0  0  0  0  0  0  0  0  0  0  0  0
   -3.4780    1.3990  -20.3740 O   0  0  0  0  0  0  0  0  0  0  0  0
   -6.3060    0.0220  -17.0730 O   0  0  0  0  0  0  0  0  0  0  0  0
  -13.8930   -2.0780  -22.9990 Cl  0  0  0  0  0  0  0  0  0  0  0  0
  -14.3380   -3.9990  -25.4600 Cl  0  0  0  0  0  0  0  0  0  0  0  0
  -11.8410   -5.3830  -26.7840 Cl  0  0  0  0  0  0  0  0  0  0  0  0
  4  3  1  0
  6  5  1  0
  8  7  1  0
  9  1  2  0
 10  9  1  0
 11 10  2  0
 12 11  1  0
 13  3  2  0
 14 12  2  0
 14  1  1  0
 16 15  1  0
 16  4  2  0
 17  4  1  0
 17  2  1  0
 18 15  1  0
 18  2  1  0
 19  8  1  0
 19  6  1  0
 19  3  1  0
 20  9  1  0
 20  7  1  0
 20  5  1  0
 21  2  2  0
 22 15  2  0
 23 14  1  0
 24 12  1  0
 25 11  1  0
M  END
$$$$

     RDKit          3D

 25 28  0  0  0  0  0  0  0  0999 V2000
   -9.0710   -0.0240  -21.4330 O   0  0  0  0  0  0  0  0  0  0  0  0
   -8.5190   -1.0160  -21.8830 C   0  0  0  0  0  0  0  0  0  0  0  0
   -9.0490   -1.7150  -23.1480 C   0  0  1  0  0  0  0  0  0  0  0  0
  -10.5640   -1.5070  -23.1440 C   0  0  0  0  0  0  0  0  0  0  0  0
  -11.3790   -2.1880  -22.2410 C   0  0  0  0  0  0  0  0  0  0  0  0
  -12.7410   -1.9620  -22.2590 C   0  0  0  0  0  0  0  0  0  0  0  0
  -13.7600   -2.9130  -21.2230 Cl  0  0  0  0  0  0  0  0  0  0  0  0
  -13.3240   -1.0680  -23.1300 C   0  0  0  0  0  0  0  0  0  0  0  0
  -12.5320   -0.3950  -24.0380 C   0  0  0  0  0  0  0  0  0  0  0  0
  -11.1670   -0.6200  -24.0400 C   0  0  0  0  0  0  0  0  0  0  0  0
  -10.4510    0.0740  -24.9780 O   0  0  0  0  0  0  0  0  0  0  0  0
   -9.3020   -0.6480  -25.4540 C   0  0  0  0  0  0  0  0  0  0  0  0
   -8.3440   -0.9940  -24.3290 C   0  0  0  0  0  0  0  0  0  0  0  0
   -8.7680   -3.2300  -23.2090 C   0  0  0  0  0  0  0  0  0  0  0  0
   -7.5390   -1.6170  -21.2070 N   0  0  0  0  0  0  0  0  0  0  0  0
   -6.6330   -1.2040  -20.2300 C   0  0  0  0  0  0  0  0  0  0  0  0
   -5.5430   -0.3450  -20.5490 C   0  0  0  0  0  0  0  0  0  0  0  0
   -5.0410   -0.1670  -21.8660 C   0  0  0  0  0  0  0  0  0  0  0  0
   -3.8940    0.5360  -22.0910 C   0  0  0  0  0  0  0  0  0  0  0  0
   -3.1960    1.1060  -21.0400 C   0  0  0  0  0  0  0  0  0  0  0  0
   -3.6530    0.9930  -19.7590 C   0  0  0  0  0  0  0  0  0  0  0  0
   -4.8370    0.2670  -19.4770 C   0  0  0  0  0  0  0  0  0  0  0  0
   -5.3160    0.0470  -18.1630 C   0  0  0  0  0  0  0  0  0  0  0  0
   -6.3530   -0.7230  -17.8700 N   0  0  0  0  0  0  0  0  0  0  0  0
   -6.9630   -1.3500  -18.8840 C   0  0  0  0  0  0  0  0  0  0  0  0
  2  1  2  0
  3  2  1  0
  4  3  1  0
  5  4  2  0
  6  5  1  0
  7  6  1  0
  8  6  2  0
  9  8  1  0
 10  9  2  0
 10  4  1  0
 11 10  1  0
 12 11  1  0
 13 12  1  0
 13  3  1  0
  3 14  1  1
 15  2  1  0
 16 15  1  0
 17 16  1  0
 18 17  2  0
 19 18  1  0
 20 19  2  0
 21 20  1  0
 22 17  1  0
 22 21  2  0
 23 22  1  0
 24 23  2  0
 25 24  1  0
 25 16  2  0
M  END
$$$$

     RDKit          3D

 25 27  0  0  0  0  0  0  0  0999 V2000
   -6.3840   -0.4310  -17.8800 N   0  0  0  0  0  0  0  0  0  0  0  0
   -8.9260   -1.8280  -22.7860 N   0  0  0  0  0  0  0  0  0  0  0  0
   -7.1620   -1.6430  -21.2600 N   0  0  0  0  0  0  0  0  0  0  0  0
   -6.7680   -4.9390  -25.1750 C   0  0  0  0  0  0  0  0  0  0  0  0
  -12.9920   -1.0380  -23.4250 C   0  0  0  0  0  0  0  0  0  0  0  0
   -8.9400   -0.2280  -21.1820 O   0  0  0  0  0  0  0  0  0  0  0  0
   -9.0270   -5.7280  -25.5730 C   0  0  0  0  0  0  0  0  0  0  0  0
  -12.0300   -0.3920  -24.1900 C   0  0  0  0  0  0  0  0  0  0  0  0
   -5.2760    0.2790  -18.1350 C   0  0  0  0  0  0  0  0  0  0  0  0
   -8.0920   -2.6120  -23.7050 C   0  0  0  0  0  0  0  0  0  0  0  0
  -11.2560   -2.3150  -22.3380 C   0  0  0  0  0  0  0  0  0  0  0  0
  -10.2980   -1.6600  -23.1060 C   0  0  0  0  0  0  0  0  0  0  0  0
   -6.3590   -5.5430  -26.5000 C   0  0  0  0  0  0  0  0  0  0  0  0
   -6.4540   -1.0270  -20.2100 C   0  0  0  0  0  0  0  0  0  0  0  0
   -6.9490   -1.0740  -18.9050 C   0  0  0  0  0  0  0  0  0  0  0  0
   -8.5600   -6.3010  -26.8870 C   0  0  0  0  0  0  0  0  0  0  0  0
   -8.3570   -1.1730  -21.6880 C   0  0  0  0  0  0  0  0  0  0  0  0
   -5.3090   -0.2770  -20.4450 C   0  0  0  0  0  0  0  0  0  0  0  0
  -12.5850   -1.9990  -22.5180 C   0  0  0  0  0  0  0  0  0  0  0  0
   -8.1990   -4.5650  -25.2050 N   0  0  1  0  0  0  0  0  0  0  0  0
   -7.1760   -6.6730  -26.8370 O   0  0  0  0  0  0  0  0  0  0  0  0
   -8.6330   -4.0000  -23.9210 C   0  0  0  0  0  0  0  0  0  0  0  0
  -10.6860   -0.7050  -24.0470 C   0  0  0  0  0  0  0  0  0  0  0  0
   -4.7100    0.3920  -19.3950 C   0  0  0  0  0  0  0  0  0  0  0  0
  -13.7820   -2.8760  -21.6100 Cl  0  0  0  0  0  0  0  0  0  0  0  0
  8  5  2  0
  9  1  2  0
 10  2  1  0
 12 11  1  0
 12  2  1  0
 13  4  1  0
 14  3  1  0
 15 14  2  0
 15  1  1  0
 16  7  1  0
 17  2  1  0
 17  6  2  0
 17  3  1  0
 18 14  1  0
 19 11  2  0
 19  5  1  0
 20  7  1  0
 20  4  1  0
 21 16  1  0
 21 13  1  0
 20 22  1  1
 22 10  1  0
 23  8  1  0
 23 12  2  0
 24 18  2  0
 24  9  1  0
 25 19  1  0
M  CHG  1  20   1
M  END
$$$$

     RDKit          3D

 32 36  0  0  0  0  0  0  0  0999 V2000
  -10.4360    1.9690  -24.6850 O   0  0  0  0  0  0  0  0  0  0  0  0
  -10.0750    0.8280  -24.4460 C   0  0  0  0  0  0  0  0  0  0  0  0
   -8.7800    0.4380  -24.6270 N   0  0  0  0  0  0  0  0  0  0  0  0
   -7.8190    1.3770  -25.2450 C   0  0  1  0  0  0  0  0  0  0  0  0
   -7.0280    0.8490  -26.4090 C   0  0  0  0  0  0  0  0  0  0  0  0
   -8.1260    1.8270  -26.6470 C   0  0  0  0  0  0  0  0  0  0  0  0
   -7.1010    2.3900  -24.3520 C   0  0  0  0  0  0  0  0  0  0  0  0
   -6.1120    2.9610  -24.7920 O   0  0  0  0  0  0  0  0  0  0  0  0
   -7.5870    2.6090  -23.1340 N   0  0  0  0  0  0  0  0  0  0  0  0
   -6.9630    3.5570  -22.2320 C   0  0  0  0  0  0  0  0  0  0  0  0
  -10.9780   -0.1470  -23.8130 C   0  0  0  0  0  0  0  0  0  0  0  0
  -12.3410    0.1380  -23.7280 C   0  0  0  0  0  0  0  0  0  0  0  0
  -13.2040   -0.7540  -23.1200 C   0  0  0  0  0  0  0  0  0  0  0  0
  -12.6990   -1.9220  -22.5940 C   0  0  0  0  0  0  0  0  0  0  0  0
  -13.7870   -3.0470  -21.8370 Cl  0  0  0  0  0  0  0  0  0  0  0  0
  -11.3480   -2.2100  -22.6230 C   0  0  0  0  0  0  0  0  0  0  0  0
  -10.4650   -1.3050  -23.2110 C   0  0  0  0  0  0  0  0  0  0  0  0
   -8.9720   -1.5150  -23.1030 C   0  0  1  0  0  0  0  0  0  0  0  0
   -8.2800   -0.9240  -24.3300 C   0  0  0  0  0  0  0  0  0  0  0  0
   -8.4380   -0.8070  -21.8530 C   0  0  0  0  0  0  0  0  0  0  0  0
   -8.9030    0.2660  -21.4570 O   0  0  0  0  0  0  0  0  0  0  0  0
   -7.3800   -1.4190  -21.2660 N   0  0  0  0  0  0  0  0  0  0  0  0
   -6.6150   -0.9690  -20.1660 C   0  0  0  0  0  0  0  0  0  0  0  0
   -5.5210   -0.0880  -20.4200 C   0  0  0  0  0  0  0  0  0  0  0  0
   -5.0120    0.1820  -21.7150 C   0  0  0  0  0  0  0  0  0  0  0  0
   -3.9560    1.0290  -21.8920 C   0  0  0  0  0  0  0  0  0  0  0  0
   -3.3620    1.6570  -20.8070 C   0  0  0  0  0  0  0  0  0  0  0  0
   -3.8110    1.4260  -19.5380 C   0  0  0  0  0  0  0  0  0  0  0  0
   -4.8860    0.5340  -19.3070 C   0  0  0  0  0  0  0  0  0  0  0  0
   -5.3430    0.1910  -18.0090 C   0  0  0  0  0  0  0  0  0  0  0  0
   -6.3230   -0.6700  -17.7700 N   0  0  0  0  0  0  0  0  0  0  0  0
   -6.9350   -1.2210  -18.8290 C   0  0  0  0  0  0  0  0  0  0  0  0
  2  1  2  0
  3  2  1  0
  4  3  1  1
  5  4  1  0
  6  5  1  0
  6  4  1  0
  7  4  1  0
  8  7  2  0
  9  7  1  0
 10  9  1  0
 11  2  1  0
 12 11  2  0
 13 12  1  0
 14 13  2  0
 15 14  1  0
 16 14  1  0
 17 16  2  0
 17 11  1  0
 18 17  1  0
 19 18  1  0
 19  3  1  0
 18 20  1  1
 21 20  2  0
 22 20  1  0
 23 22  1  0
 24 23  1  0
 25 24  2  0
 26 25  1  0
 27 26  2  0
 28 27  1  0
 29 24  1  0
 29 28  2  0
 30 29  1  0
 31 30  2  0
 32 31  1  0
 32 23  2  0
M  END
$$$$

     RDKit          3D

 16 17  0  0  0  0  0  0  0  0999 V2000
   -8.3230   -1.3620  -21.6310 C   0  0  0  0  0  0  0  0  0  0  0  0
  -10.2110   -1.6910  -23.1360 C   0  0  0  0  0  0  0  0  0  0  0  0
  -10.2520   -0.8770  -24.2490 C   0  0  0  0  0  0  0  0  0  0  0  0
  -11.4640   -0.4080  -24.6930 C   0  0  0  0  0  0  0  0  0  0  0  0
  -12.6270   -0.7480  -24.0150 C   0  0  0  0  0  0  0  0  0  0  0  0
  -12.5780   -1.5620  -22.8970 C   0  0  0  0  0  0  0  0  0  0  0  0
  -11.3590   -2.0310  -22.4460 C   0  0  0  0  0  0  0  0  0  0  0  0
   -6.3720   -1.0180  -20.1040 C   0  0  0  0  0  0  0  0  0  0  0  0
   -5.1810   -0.3630  -20.3710 C   0  0  0  0  0  0  0  0  0  0  0  0
   -4.5930    0.3290  -19.3260 C   0  0  0  0  0  0  0  0  0  0  0  0
   -5.2080    0.2980  -18.0800 C   0  0  0  0  0  0  0  0  0  0  0  0
   -6.9390   -0.9890  -18.8400 C   0  0  0  0  0  0  0  0  0  0  0  0
   -8.9190   -2.1250  -22.7010 N   0  0  0  0  0  0  0  0  0  0  0  0
   -7.0120   -1.7410  -21.1700 N   0  0  0  0  0  0  0  0  0  0  0  0
   -6.3430   -0.3290  -17.8830 N   0  0  0  0  0  0  0  0  0  0  0  0
   -8.9120   -0.4550  -21.1450 O   0  0  0  0  0  0  0  0  0  0  0  0
  3  2  2  0
  4  3  1  0
  5  4  2  0
  6  5  1  0
  7  6  2  0
  7  2  1  0
  9  8  2  0
 10  9  1  0
 11 10  2  0
 12  8  1  0
 13  2  1  0
 13  1  1  0
 14  8  1  0
 14  1  1  0
 15 12  2  0
 15 11  1  0
 16  1  2  0
M  END
$$$$

     RDKit          3D

 32 35  0  0  0  0  0  0  0  0999 V2000
  -13.7430   -2.4730  -21.7170 Cl  0  0  0  0  0  0  0  0  0  0  0  0
  -12.4920   -1.7700  -22.6930 C   0  0  0  0  0  0  0  0  0  0  0  0
  -12.7890   -0.8520  -23.7010 C   0  0  0  0  0  0  0  0  0  0  0  0
  -14.4070   -0.2670  -23.9430 Cl  0  0  0  0  0  0  0  0  0  0  0  0
  -11.7750   -0.3430  -24.4830 C   0  0  0  0  0  0  0  0  0  0  0  0
  -10.4670   -0.7160  -24.2420 C   0  0  0  0  0  0  0  0  0  0  0  0
  -11.1820   -2.1450  -22.4510 C   0  0  0  0  0  0  0  0  0  0  0  0
  -10.1510   -1.6110  -23.2220 C   0  0  0  0  0  0  0  0  0  0  0  0
   -8.6950   -2.0070  -22.9310 C   0  0  1  0  0  0  0  0  0  0  0  0
   -8.6220   -3.5020  -22.6060 C   0  0  0  0  0  0  0  0  0  0  0  0
   -7.8520   -1.7420  -24.1080 N   0  0  0  0  0  0  0  0  0  0  0  0
   -7.2860   -0.5820  -24.4780 C   0  0  0  0  0  0  0  0  0  0  0  0
   -7.4460    0.4800  -23.8860 O   0  0  0  0  0  0  0  0  0  0  0  0
   -6.4430   -0.6810  -25.7210 C   0  0  1  0  0  0  0  0  0  0  0  0
   -6.8990    0.3080  -26.8190 C   0  0  0  0  0  0  0  0  0  0  0  0
   -5.6350    0.9730  -27.3490 C   0  0  0  0  0  0  0  0  0  0  0  0
   -5.0010   -0.2390  -25.4650 C   0  0  0  0  0  0  0  0  0  0  0  0
   -4.5190    0.1990  -26.7780 N   0  0  2  0  0  0  0  0  0  0  0  0
   -3.2670    0.9680  -26.7070 C   0  0  0  0  0  0  0  0  0  0  0  0
   -8.2000   -1.1870  -21.6950 C   0  0  0  0  0  0  0  0  0  0  0  0
   -8.8570   -0.2600  -21.2340 O   0  0  0  0  0  0  0  0  0  0  0  0
   -6.9960   -1.5530  -21.2040 N   0  0  0  0  0  0  0  0  0  0  0  0
   -6.3610   -0.9880  -20.0790 C   0  0  0  0  0  0  0  0  0  0  0  0
   -5.3010   -0.0500  -20.2810 C   0  0  0  0  0  0  0  0  0  0  0  0
   -4.7660    0.2770  -21.5540 C   0  0  0  0  0  0  0  0  0  0  0  0
   -3.7380    1.1720  -21.6770 C   0  0  0  0  0  0  0  0  0  0  0  0
   -3.1940    1.7850  -20.5560 C   0  0  0  0  0  0  0  0  0  0  0  0
   -3.6730    1.5040  -19.3090 C   0  0  0  0  0  0  0  0  0  0  0  0
   -4.7390    0.5830  -19.1360 C   0  0  0  0  0  0  0  0  0  0  0  0
   -5.2680    0.2400  -17.8660 C   0  0  0  0  0  0  0  0  0  0  0  0
   -6.2460   -0.6320  -17.6780 N   0  0  0  0  0  0  0  0  0  0  0  0
   -6.7630   -1.2240  -18.7640 C   0  0  0  0  0  0  0  0  0  0  0  0
  2  1  1  0
  3  2  2  0
  4  3  1  0
  5  3  1  0
  6  5  2  0
  7  2  1  0
  8  7  2  0
  8  6  1  0
  9  8  1  0
  9 10  1  1
 11  9  1  0
 12 11  1  0
 13 12  2  0
 14 12  1  1
 15 14  1  0
 16 15  1  0
 17 14  1  0
 18 16  1  0
 18 17  1  0
 18 19  1  1
 20  9  1  0
 21 20  2  0
 22 20  1  0
 23 22  1  0
 24 23  1  0
 25 24  2  0
 26 25  1  0
 27 26  2  0
 28 27  1  0
 29 28  2  0
 29 24  1  0
 30 29  1  0
 31 30  2  0
 32 31  1  0
 32 23  2  0
M  CHG  1  18   1
M  END
$$$$

     RDKit          3D

 20 22  0  0  0  0  0  0  0  0999 V2000
   -8.8230   -0.2150  -21.3550 O   0  0  0  0  0  0  0  0  0  0  0  0
   -8.2370   -1.2390  -21.6840 C   0  0  0  0  0  0  0  0  0  0  0  0
   -8.6950   -2.0760  -22.8610 C   0  0  0  0  0  0  0  0  0  0  0  0
  -10.1700   -1.8780  -23.1170 C   0  0  0  0  0  0  0  0  0  0  0  0
  -10.6110   -1.0310  -24.1230 C   0  0  0  0  0  0  0  0  0  0  0  0
  -11.9590   -0.7430  -24.2690 C   0  0  0  0  0  0  0  0  0  0  0  0
  -12.8940   -1.3210  -23.4230 C   0  0  0  0  0  0  0  0  0  0  0  0
  -11.1100   -2.4760  -22.2840 C   0  0  0  0  0  0  0  0  0  0  0  0
  -12.4520   -2.2020  -22.4590 C   0  0  0  0  0  0  0  0  0  0  0  0
  -13.6210   -3.0610  -21.4930 Cl  0  0  0  0  0  0  0  0  0  0  0  0
   -7.1410   -1.6980  -21.0520 N   0  0  0  0  0  0  0  0  0  0  0  0
   -6.4800   -1.0270  -20.0000 C   0  0  0  0  0  0  0  0  0  0  0  0
   -5.3790   -0.2190  -20.3170 C   0  0  0  0  0  0  0  0  0  0  0  0
   -4.8170    0.1410  -21.6640 C   0  0  0  0  0  0  0  0  0  0  0  0
   -3.5000    0.8450  -21.3310 C   0  0  0  0  0  0  0  0  0  0  0  0
   -3.5580    1.2460  -19.8550 C   0  0  0  0  0  0  0  0  0  0  0  0
   -4.6900    0.4260  -19.2940 C   0  0  0  0  0  0  0  0  0  0  0  0
   -5.1500    0.2390  -18.0070 C   0  0  0  0  0  0  0  0  0  0  0  0
   -6.2090   -0.5090  -17.6780 N   0  0  0  0  0  0  0  0  0  0  0  0
   -6.8560   -1.1330  -18.6650 C   0  0  0  0  0  0  0  0  0  0  0  0
  2  1  2  0
  3  2  1  0
  4  3  1  0
  5  4  2  0
  6  5  1  0
  7  6  2  0
  8  4  1  0
  9  8  2  0
  9  7  1  0
 10  9  1  0
 11  2  1  0
 12 11  1  0
 13 12  2  0
 14 13  1  0
 15 14  1  0
 16 15  1  0
 17 16  1  0
 17 13  1  0
 18 17  2  0
 19 18  1  0
 20 19  2  0
 20 12  1  0
M  END
$$$$

     RDKit          3D

 27 30  0  0  0  0  0  0  0  0999 V2000
   -9.2890    0.2840  -21.4080 O   0  0  0  0  0  0  0  0  0  0  0  0
   -8.9240   -0.7890  -21.8660 C   0  0  0  0  0  0  0  0  0  0  0  0
   -9.7310   -1.4860  -22.9890 C   0  0  2  0  0  0  0  0  0  0  0  0
  -10.9880   -0.6740  -23.3210 C   0  0  0  0  0  0  0  0  0  0  0  0
  -10.8230    0.5630  -23.9450 C   0  0  0  0  0  0  0  0  0  0  0  0
  -11.8990    1.4220  -24.0580 C   0  0  0  0  0  0  0  0  0  0  0  0
  -11.6360    3.0090  -24.7180 Cl  0  0  0  0  0  0  0  0  0  0  0  0
  -13.1590    1.0800  -23.6160 C   0  0  0  0  0  0  0  0  0  0  0  0
  -13.3590   -0.1610  -23.0450 C   0  0  0  0  0  0  0  0  0  0  0  0
  -12.2830   -1.0270  -22.9010 C   0  0  0  0  0  0  0  0  0  0  0  0
  -12.5970   -2.5830  -22.1640 S   0  0  1  0  0  0  0  0  0  0  0  0
  -13.4560   -2.4050  -21.0320 O   0  0  0  0  0  0  0  0  0  0  0  0
  -12.9860   -3.5160  -23.1770 O   0  0  0  0  0  0  0  0  0  0  0  0
  -11.1230   -3.0120  -21.6260 N   0  0  0  0  0  0  0  0  0  0  0  0
  -10.0840   -2.9520  -22.6620 C   0  0  0  0  0  0  0  0  0  0  0  0
   -8.7780   -1.4520  -24.2000 C   0  0  0  0  0  0  0  0  0  0  0  0
   -7.8300   -1.4470  -21.4110 N   0  0  0  0  0  0  0  0  0  0  0  0
   -7.0140   -1.0240  -20.3290 C   0  0  0  0  0  0  0  0  0  0  0  0
   -5.8660   -0.2280  -20.5320 C   0  0  0  0  0  0  0  0  0  0  0  0
   -5.4610    0.1870  -21.9300 C   0  0  0  0  0  0  0  0  0  0  0  0
   -4.0140    0.6440  -22.0170 C   0  0  0  0  0  0  0  0  0  0  0  0
   -3.7010    1.6400  -20.9190 C   0  0  0  0  0  0  0  0  0  0  0  0
   -3.8800    1.0200  -19.5520 C   0  0  0  0  0  0  0  0  0  0  0  0
   -5.1430    0.2060  -19.4100 C   0  0  0  0  0  0  0  0  0  0  0  0
   -5.6090   -0.1590  -18.1610 C   0  0  0  0  0  0  0  0  0  0  0  0
   -6.6940   -0.9100  -17.9470 N   0  0  0  0  0  0  0  0  0  0  0  0
   -7.3720   -1.3370  -19.0190 C   0  0  0  0  0  0  0  0  0  0  0  0
  2  1  2  0
  3  2  1  0
  4  3  1  0
  5  4  2  0
  6  5  1  0
  7  6  1  0
  8  6  2  0
  9  8  1  0
 10  9  2  0
 10  4  1  0
 11 10  1  0
 12 11  2  0
 13 11  2  0
 11 14  1  1
 15 14  1  0
 15  3  1  0
  3 16  1  6
 17  2  1  0
 18 17  1  0
 19 18  1  0
 20 19  1  0
 21 20  1  0
 22 21  1  0
 23 22  1  0
 24 19  2  0
 24 23  1  0
 25 24  1  0
 26 25  2  0
 27 26  1  0
 27 18  2  0
M  END
$$$$

     RDKit          3D

 22 24  0  0  0  0  0  0  0  0999 V2000
   -8.9140   -0.0180  -21.5390 O   0  0  0  0  0  0  0  0  0  0  0  0
   -8.6950   -1.1420  -21.9720 C   0  0  0  0  0  0  0  0  0  0  0  0
   -7.5700   -1.9840  -21.3680 C   0  0  0  0  0  0  0  0  0  0  0  0
   -6.9510   -1.3120  -20.2450 N   0  0  0  0  0  0  0  0  0  0  0  0
   -5.8550   -0.5080  -20.2190 C   0  0  0  0  0  0  0  0  0  0  0  0
   -5.0020   -0.0200  -21.1970 C   0  0  0  0  0  0  0  0  0  0  0  0
   -3.9730    0.8230  -20.7960 C   0  0  0  0  0  0  0  0  0  0  0  0
   -3.8010    1.1530  -19.4530 C   0  0  0  0  0  0  0  0  0  0  0  0
   -4.6600    0.6570  -18.4800 C   0  0  0  0  0  0  0  0  0  0  0  0
   -5.7070   -0.1730  -18.8760 C   0  0  0  0  0  0  0  0  0  0  0  0
   -6.7210   -0.7680  -18.1610 N   0  0  0  0  0  0  0  0  0  0  0  0
   -7.4620   -1.4460  -18.9930 N   0  0  0  0  0  0  0  0  0  0  0  0
   -9.4140   -1.6640  -22.9930 N   0  0  0  0  0  0  0  0  0  0  0  0
   -9.3700   -3.0550  -23.4310 C   0  0  0  0  0  0  0  0  0  0  0  0
  -10.2820   -0.7860  -23.7930 C   0  0  0  0  0  0  0  0  0  0  0  0
  -11.7000   -0.6810  -23.2760 C   0  0  0  0  0  0  0  0  0  0  0  0
  -12.2560   -1.6790  -22.4810 C   0  0  0  0  0  0  0  0  0  0  0  0
  -13.5560   -1.5460  -22.0560 C   0  0  0  0  0  0  0  0  0  0  0  0
  -14.0840   -2.5240  -21.2740 F   0  0  0  0  0  0  0  0  0  0  0  0
  -14.3470   -0.4800  -22.3800 C   0  0  0  0  0  0  0  0  0  0  0  0
  -13.7950    0.5150  -23.1700 C   0  0  0  0  0  0  0  0  0  0  0  0
  -12.4860    0.4160  -23.6110 C   0  0  0  0  0  0  0  0  0  0  0  0
  2  1  2  0
  3  2  1  0
  4  3  1  0
  5  4  1  0
  6  5  2  0
  7  6  1  0
  8  7  2  0
  9  8  1  0
 10  5  1  0
 10  9  2  0
 11 10  1  0
 12 11  2  0
 12  4  1  0
 13  2  1  0
 14 13  1  0
 15 13  1  0
 16 15  1  0
 17 16  2  0
 18 17  1  0
 19 18  1  0
 20 18  2  0
 21 20  1  0
 22 21  2  0
 22 16  1  0
M  END
$$$$

     RDKit          3D

 24 26  0  0  0  0  0  0  0  0999 V2000
  -13.8500   -2.7190  -21.7730 Cl  0  0  0  0  0  0  0  0  0  0  0  0
  -12.5370   -2.0280  -22.6860 C   0  0  0  0  0  0  0  0  0  0  0  0
  -12.8100   -1.0830  -23.6520 C   0  0  0  0  0  0  0  0  0  0  0  0
  -11.7600   -0.5780  -24.4020 C   0  0  0  0  0  0  0  0  0  0  0  0
  -10.4610   -0.9920  -24.1530 C   0  0  0  0  0  0  0  0  0  0  0  0
  -11.2450   -2.4540  -22.4300 C   0  0  0  0  0  0  0  0  0  0  0  0
  -10.1860   -1.9110  -23.1480 C   0  0  0  0  0  0  0  0  0  0  0  0
   -8.7600   -2.2290  -22.7610 C   0  0  0  0  0  0  0  0  0  0  0  0
   -8.2040   -1.2490  -21.7460 C   0  0  0  0  0  0  0  0  0  0  0  0
   -8.7780   -0.1930  -21.4810 O   0  0  0  0  0  0  0  0  0  0  0  0
   -7.0670   -1.6510  -21.1390 N   0  0  0  0  0  0  0  0  0  0  0  0
   -6.4090   -1.0440  -20.0490 C   0  0  0  0  0  0  0  0  0  0  0  0
   -6.8040   -1.1930  -18.7180 C   0  0  0  0  0  0  0  0  0  0  0  0
   -6.2130   -0.6030  -17.6710 N   0  0  0  0  0  0  0  0  0  0  0  0
   -5.1800    0.1950  -17.9190 C   0  0  0  0  0  0  0  0  0  0  0  0
   -5.2910   -0.1930  -20.3170 C   0  0  0  0  0  0  0  0  0  0  0  0
   -4.6680    0.4550  -19.2150 C   0  0  0  0  0  0  0  0  0  0  0  0
   -3.5600    1.3000  -19.4560 C   0  0  0  0  0  0  0  0  0  0  0  0
   -3.0700    1.4680  -20.7170 C   0  0  0  0  0  0  0  0  0  0  0  0
   -4.7590    0.0170  -21.6130 C   0  0  0  0  0  0  0  0  0  0  0  0
   -3.6510    0.8120  -21.8080 C   0  0  0  0  0  0  0  0  0  0  0  0
   -3.0120    0.9160  -23.1550 C   0  0  0  0  0  0  0  0  0  0  0  0
   -2.0680    1.6800  -23.3540 O   0  0  0  0  0  0  0  0  0  0  0  0
   -3.4920    0.1170  -24.0810 O   0  0  0  0  0  0  0  0  0  0  0  0
  2  1  1  0
  3  2  2  0
  4  3  1  0
  5  4  2  0
  6  2  1  0
  7  6  2  0
  7  5  1  0
  8  7  1  0
  9  8  1  0
 10  9  2  0
 11  9  1  0
 12 11  1  0
 13 12  2  0
 14 13  1  0
 15 14  2  0
 16 12  1  0
 17 16  2  0
 17 15  1  0
 18 17  1  0
 19 18  2  0
 20 16  1  0
 21 20  2  0
 21 19  1  0
 22 21  1  0
 23 22  2  0
 24 22  1  0
M  CHG  1  24  -1
M  END
$$$$

     RDKit          3D

 32 35  0  0  0  0  0  0  0  0999 V2000
  -13.7940   -2.7980  -21.6140 Cl  0  0  0  0  0  0  0  0  0  0  0  0
  -12.6070   -2.0250  -22.6350 C   0  0  0  0  0  0  0  0  0  0  0  0
  -11.2700   -2.3520  -22.4870 C   0  0  0  0  0  0  0  0  0  0  0  0
  -13.0240   -1.1040  -23.5660 C   0  0  0  0  0  0  0  0  0  0  0  0
  -12.0870   -0.5190  -24.3950 C   0  0  0  0  0  0  0  0  0  0  0  0
  -10.7310   -0.8150  -24.2750 C   0  0  0  0  0  0  0  0  0  0  0  0
   -9.7550   -0.1020  -25.1840 C   0  0  0  0  0  0  0  0  0  0  0  0
   -8.3840   -0.2580  -24.6830 N   0  0  0  0  0  0  0  0  0  0  0  0
   -7.2730    0.6180  -25.4270 S   0  0  2  0  0  0  0  0  0  0  0  0
   -7.5280    0.4860  -26.8200 O   0  0  0  0  0  0  0  0  0  0  0  0
   -6.0150    0.2500  -24.8800 O   0  0  0  0  0  0  0  0  0  0  0  0
   -7.5950    2.1270  -25.0040 N   0  0  0  0  0  0  0  0  0  0  0  0
   -8.1050    3.1860  -25.9040 C   0  0  0  0  0  0  0  0  0  0  0  0
   -7.0070    4.0400  -26.5000 C   0  0  0  0  0  0  0  0  0  0  0  0
   -7.3320    4.4270  -27.8320 O   0  0  0  0  0  0  0  0  0  0  0  0
   -7.3650    2.5400  -23.6180 C   0  0  0  0  0  0  0  0  0  0  0  0
  -10.3140   -1.7310  -23.2950 C   0  0  0  0  0  0  0  0  0  0  0  0
   -8.8330   -2.0050  -23.0850 C   0  0  1  0  0  0  0  0  0  0  0  0
   -8.0350   -1.6490  -24.3410 C   0  0  0  0  0  0  0  0  0  0  0  0
   -8.3420   -1.1700  -21.8970 C   0  0  0  0  0  0  0  0  0  0  0  0
   -8.9510   -0.1740  -21.5000 O   0  0  0  0  0  0  0  0  0  0  0  0
   -7.1910   -1.6100  -21.3240 N   0  0  0  0  0  0  0  0  0  0  0  0
   -6.5260   -1.0700  -20.2010 C   0  0  0  0  0  0  0  0  0  0  0  0
   -5.4150   -0.1890  -20.4070 C   0  0  0  0  0  0  0  0  0  0  0  0
   -4.8500    0.0850  -21.6800 C   0  0  0  0  0  0  0  0  0  0  0  0
   -3.7940    0.9430  -21.8110 C   0  0  0  0  0  0  0  0  0  0  0  0
   -3.2610    1.5860  -20.6990 C   0  0  0  0  0  0  0  0  0  0  0  0
   -3.7700    1.3570  -19.4520 C   0  0  0  0  0  0  0  0  0  0  0  0
   -4.8470    0.4540  -19.2680 C   0  0  0  0  0  0  0  0  0  0  0  0
   -5.3950    0.1500  -17.9960 C   0  0  0  0  0  0  0  0  0  0  0  0
   -6.4130   -0.6770  -17.8020 N   0  0  0  0  0  0  0  0  0  0  0  0
   -6.9530   -1.2600  -18.8840 C   0  0  0  0  0  0  0  0  0  0  0  0
  2  1  1  0
  3  2  2  0
  4  2  1  0
  5  4  2  0
  6  5  1  0
  7  6  1  0
  8  7  1  0
  9  8  1  0
 10  9  2  0
 11  9  2  0
  9 12  1  1
 13 12  1  0
 14 13  1  0
 15 14  1  0
 16 12  1  0
 17  3  1  0
 17  6  2  0
 18 17  1  0
 19 18  1  0
 19  8  1  0
 18 20  1  1
 21 20  2  0
 22 20  1  0
 23 22  1  0
 24 23  1  0
 25 24  2  0
 26 25  1  0
 27 26  2  0
 28 27  1  0
 29 28  2  0
 29 24  1  0
 30 29  1  0
 31 30  2  0
 32 31  1  0
 32 23  2  0
M  END
$$$$

     RDKit          3D

 27 31  0  0  0  0  0  0  0  0999 V2000
   -9.0580    0.5600  -21.2810 O   0  0  0  0  0  0  0  0  0  0  0  0
   -8.7040   -0.5070  -21.7370 C   0  0  0  0  0  0  0  0  0  0  0  0
   -9.2790   -1.1960  -22.9960 C   0  0  2  0  0  0  0  0  0  0  0  0
   -8.6470   -0.4640  -24.2010 C   0  0  0  0  0  0  0  0  0  0  0  0
   -9.6570   -0.0450  -25.2510 C   0  0  0  0  0  0  0  0  0  0  0  0
  -10.8040    0.5940  -24.6770 O   0  0  0  0  0  0  0  0  0  0  0  0
  -10.8030   -1.1530  -22.9920 C   0  0  0  0  0  0  0  0  0  0  0  0
  -11.4690   -0.2230  -23.7990 C   0  0  0  0  0  0  0  0  0  0  0  0
  -12.8500   -0.1120  -23.8050 C   0  0  0  0  0  0  0  0  0  0  0  0
  -13.5970   -0.9450  -22.9930 C   0  0  0  0  0  0  0  0  0  0  0  0
  -11.5730   -2.0000  -22.1940 C   0  0  0  0  0  0  0  0  0  0  0  0
  -12.9540   -1.8610  -22.1900 C   0  0  0  0  0  0  0  0  0  0  0  0
  -13.8970   -2.8070  -21.0670 Cl  0  0  0  0  0  0  0  0  0  0  0  0
   -7.7420   -1.3730  -21.2150 N   0  0  0  0  0  0  0  0  0  0  0  0
   -7.7600   -2.6060  -21.8770 C   0  0  0  0  0  0  0  0  0  0  0  0
   -7.0420   -3.5590  -21.6180 O   0  0  0  0  0  0  0  0  0  0  0  0
   -8.7130   -2.5320  -22.8380 N   0  0  0  0  0  0  0  0  0  0  0  0
   -6.8420   -1.0320  -20.1310 C   0  0  0  0  0  0  0  0  0  0  0  0
   -5.7100   -0.1980  -20.3930 C   0  0  0  0  0  0  0  0  0  0  0  0
   -5.2230    0.1190  -21.6890 C   0  0  0  0  0  0  0  0  0  0  0  0
   -4.1420    0.9390  -21.8560 C   0  0  0  0  0  0  0  0  0  0  0  0
   -3.4880    1.4790  -20.7570 C   0  0  0  0  0  0  0  0  0  0  0  0
   -3.9130    1.2040  -19.4900 C   0  0  0  0  0  0  0  0  0  0  0  0
   -5.0300    0.3610  -19.2720 C   0  0  0  0  0  0  0  0  0  0  0  0
   -5.5210    0.0550  -17.9790 C   0  0  0  0  0  0  0  0  0  0  0  0
   -6.5730   -0.7170  -17.7450 N   0  0  0  0  0  0  0  0  0  0  0  0
   -7.2090   -1.2380  -18.8050 C   0  0  0  0  0  0  0  0  0  0  0  0
  2  1  2  0
  3  2  1  0
  3  4  1  6
  5  4  1  0
  6  5  1  0
  7  3  1  0
  8  7  2  0
  8  6  1  0
  9  8  1  0
 10  9  2  0
 11  7  1  0
 12 11  2  0
 12 10  1  0
 13 12  1  0
 14  2  1  0
 15 14  1  0
 16 15  2  0
 17 15  1  0
 17  3  1  0
 18 14  1  0
 19 18  1  0
 20 19  2  0
 21 20  1  0
 22 21  2  0
 23 22  1  0
 24 19  1  0
 24 23  2  0
 25 24  1  0
 26 25  2  0
 27 26  1  0
 27 18  2  0
M  END
$$$$

     RDKit          3D

 31 35  0  0  0  0  0  0  0  0999 V2000
   -5.9300    0.4600  -24.6120 O   0  0  0  0  0  0  0  0  0  0  0  0
   -7.1820    0.8610  -25.1680 S   0  0  2  0  0  0  0  0  0  0  0  0
   -7.3200    0.9570  -26.5870 O   0  0  0  0  0  0  0  0  0  0  0  0
   -7.6320    2.3090  -24.5760 N   0  0  0  0  0  0  0  0  0  0  0  0
   -7.4210    2.7400  -23.1840 C   0  0  2  0  0  0  0  0  0  0  0  0
   -7.3230    4.1920  -22.9040 C   0  0  0  0  0  0  0  0  0  0  0  0
   -6.1140    3.3320  -22.8100 C   0  0  0  0  0  0  0  0  0  0  0  0
   -8.2990   -0.2170  -24.7370 N   0  0  0  0  0  0  0  0  0  0  0  0
   -9.7070    0.0830  -25.0260 C   0  0  0  0  0  0  0  0  0  0  0  0
   -8.0120   -1.5750  -24.2400 C   0  0  0  0  0  0  0  0  0  0  0  0
   -8.8120   -1.9400  -22.9900 C   0  0  2  0  0  0  0  0  0  0  0  0
  -10.2830   -1.6320  -23.1970 C   0  0  0  0  0  0  0  0  0  0  0  0
  -10.6700   -0.6340  -24.1050 C   0  0  0  0  0  0  0  0  0  0  0  0
  -12.0190   -0.2950  -24.2080 C   0  0  0  0  0  0  0  0  0  0  0  0
  -12.9770   -0.9330  -23.4450 C   0  0  0  0  0  0  0  0  0  0  0  0
  -11.2610   -2.2960  -22.4500 C   0  0  0  0  0  0  0  0  0  0  0  0
  -12.5880   -1.9320  -22.5870 C   0  0  0  0  0  0  0  0  0  0  0  0
  -13.8000   -2.7670  -21.6550 Cl  0  0  0  0  0  0  0  0  0  0  0  0
   -8.3200   -1.1490  -21.7750 C   0  0  0  0  0  0  0  0  0  0  0  0
   -8.9300   -0.1780  -21.3440 O   0  0  0  0  0  0  0  0  0  0  0  0
   -7.1570   -1.5940  -21.2360 N   0  0  0  0  0  0  0  0  0  0  0  0
   -6.4650   -1.0610  -20.1210 C   0  0  0  0  0  0  0  0  0  0  0  0
   -5.3090   -0.2480  -20.3500 C   0  0  0  0  0  0  0  0  0  0  0  0
   -4.7450   -0.0210  -21.6310 C   0  0  0  0  0  0  0  0  0  0  0  0
   -3.6640    0.8020  -21.7880 C   0  0  0  0  0  0  0  0  0  0  0  0
   -3.0950    1.4400  -20.6920 C   0  0  0  0  0  0  0  0  0  0  0  0
   -3.5930    1.2440  -19.4370 C   0  0  0  0  0  0  0  0  0  0  0  0
   -4.7050    0.3900  -19.2270 C   0  0  0  0  0  0  0  0  0  0  0  0
   -5.2670    0.1490  -17.9480 C   0  0  0  0  0  0  0  0  0  0  0  0
   -6.3270   -0.6220  -17.7330 N   0  0  0  0  0  0  0  0  0  0  0  0
   -6.9020   -1.1970  -18.8010 C   0  0  0  0  0  0  0  0  0  0  0  0
  2  1  2  0
  3  2  2  0
  2  4  1  1
  5  4  1  6
  6  5  1  0
  7  6  1  0
  7  5  1  0
  8  2  1  0
  9  8  1  0
 10  8  1  0
 11 10  1  0
 12 11  1  0
 13 12  2  0
 13  9  1  0
 14 13  1  0
 15 14  2  0
 16 12  1  0
 17 16  2  0
 17 15  1  0
 18 17  1  0
 11 19  1  1
 20 19  2  0
 21 19  1  0
 22 21  1  0
 23 22  1  0
 24 23  2  0
 25 24  1  0
 26 25  2  0
 27 26  1  0
 28 27  2  0
 28 23  1  0
 29 28  1  0
 30 29  2  0
 31 30  1  0
 31 22  2  0
M  END
$$$$

     RDKit          3D

 22 25  0  0  0  0  0  0  0  0999 V2000
  -10.1420   -1.6640  -23.4590 N   0  0  0  0  0  0  0  0  0  0  0  0
   -6.1620   -0.3630  -17.6100 N   0  0  0  0  0  0  0  0  0  0  0  0
  -11.0340    0.3200  -24.0470 N   0  0  0  0  0  0  0  0  0  0  0  0
   -9.9450   -0.3740  -23.8900 C   0  0  0  0  0  0  0  0  0  0  0  0
   -6.7810   -1.5580  -21.1330 C   0  0  0  0  0  0  0  0  0  0  0  0
  -12.0540   -0.6030  -23.6860 O   0  0  0  0  0  0  0  0  0  0  0  0
   -7.2520   -1.4880  -25.3910 C   0  0  0  0  0  0  0  0  0  0  0  0
   -6.1410   -0.8550  -19.9620 C   0  0  0  0  0  0  0  0  0  0  0  0
   -6.6440   -1.0030  -18.6810 C   0  0  0  0  0  0  0  0  0  0  0  0
   -5.1270    0.4700  -17.8000 C   0  0  0  0  0  0  0  0  0  0  0  0
   -4.5520    0.6920  -19.0390 C   0  0  0  0  0  0  0  0  0  0  0  0
  -12.2280   -2.8800  -22.8600 C   0  0  1  0  0  0  0  0  0  0  0  0
   -8.5370    0.1210  -24.1080 C   0  0  2  0  0  0  0  0  0  0  0  0
   -8.0120   -0.1680  -25.5250 C   0  0  0  0  0  0  0  0  0  0  0  0
  -11.4230   -1.7390  -23.3480 C   0  0  0  0  0  0  0  0  0  0  0  0
  -13.5720   -2.6050  -22.2580 C   0  0  0  0  0  0  0  0  0  0  0  0
   -7.6570   -0.5820  -21.8930 C   0  0  0  0  0  0  0  0  0  0  0  0
   -7.5960   -0.6080  -23.2450 N   0  0  0  0  0  0  0  0  0  0  0  0
   -8.3550    0.2230  -21.2930 O   0  0  0  0  0  0  0  0  0  0  0  0
   -6.6060   -1.3760  -24.0250 C   0  0  0  0  0  0  0  0  0  0  0  0
   -5.0710    0.0180  -20.1290 C   0  0  0  0  0  0  0  0  0  0  0  0
  -13.4870   -3.2300  -23.5950 C   0  0  0  0  0  0  0  0  0  0  0  0
  4  3  2  0
  4  1  1  0
  6  3  1  0
  8  5  1  0
  9  8  1  0
  9  2  2  0
 10  2  1  0
 11 10  2  0
 13  4  1  6
 14 13  1  0
 14  7  1  0
 12 15  1  6
 15  6  1  0
 15  1  2  0
 16 12  1  0
 17  5  1  0
 18 17  1  0
 18 13  1  0
 19 17  2  0
 20 18  1  0
 20  7  1  0
 21  8  2  0
 21 11  1  0
 22 16  1  0
 22 12  1  0
M  END
$$$$

     RDKit          3D

 30 33  0  0  0  0  0  0  0  0999 V2000
   -8.6590    0.4820  -21.4080 O   0  0  0  0  0  0  0  0  0  0  0  0
   -8.4550   -0.5710  -21.9870 C   0  0  0  0  0  0  0  0  0  0  0  0
   -7.7170   -1.7190  -21.2900 C   0  0  0  0  0  0  0  0  0  0  0  0
   -6.8770   -1.2320  -20.2150 N   0  0  0  0  0  0  0  0  0  0  0  0
   -5.7320   -0.4950  -20.2780 C   0  0  0  0  0  0  0  0  0  0  0  0
   -4.8960   -0.1100  -21.3150 C   0  0  0  0  0  0  0  0  0  0  0  0
   -3.7930    0.6690  -20.9950 C   0  0  0  0  0  0  0  0  0  0  0  0
   -3.5440    1.0540  -19.6760 C   0  0  0  0  0  0  0  0  0  0  0  0
   -4.3900    0.6620  -18.6440 C   0  0  0  0  0  0  0  0  0  0  0  0
   -5.4890   -0.1330  -18.9550 C   0  0  0  0  0  0  0  0  0  0  0  0
   -6.4690   -0.6840  -18.1610 N   0  0  0  0  0  0  0  0  0  0  0  0
   -7.2860   -1.3490  -18.9270 N   0  0  0  0  0  0  0  0  0  0  0  0
   -8.8540   -0.7800  -23.2760 N   0  0  0  0  0  0  0  0  0  0  0  0
   -8.7910   -2.0430  -23.9390 C   0  0  0  0  0  0  0  0  0  0  0  0
   -7.8310   -2.2810  -24.9210 C   0  0  0  0  0  0  0  0  0  0  0  0
   -7.7650   -3.5130  -25.5500 C   0  0  0  0  0  0  0  0  0  0  0  0
   -9.6870   -3.0460  -23.6040 C   0  0  0  0  0  0  0  0  0  0  0  0
   -9.6190   -4.2790  -24.2240 C   0  0  0  0  0  0  0  0  0  0  0  0
   -8.6550   -4.5420  -25.2070 C   0  0  0  0  0  0  0  0  0  0  0  0
   -8.5840   -5.7790  -25.8140 N   0  0  0  0  0  0  0  0  0  0  0  0
   -9.1720   -6.9460  -25.1830 C   0  0  0  0  0  0  0  0  0  0  0  0
   -7.5750   -6.0750  -26.8200 C   0  0  0  0  0  0  0  0  0  0  0  0
   -9.3940    0.3570  -24.0390 C   0  0  0  0  0  0  0  0  0  0  0  0
  -10.8670    0.5950  -23.8090 C   0  0  0  0  0  0  0  0  0  0  0  0
  -11.3090    1.7470  -23.1640 C   0  0  0  0  0  0  0  0  0  0  0  0
  -12.6480    1.8750  -22.8360 C   0  0  0  0  0  0  0  0  0  0  0  0
  -13.2020    3.3440  -22.0780 Cl  0  0  0  0  0  0  0  0  0  0  0  0
  -13.5600    0.8820  -23.1190 C   0  0  0  0  0  0  0  0  0  0  0  0
  -13.1280   -0.2460  -23.7920 C   0  0  0  0  0  0  0  0  0  0  0  0
  -11.7950   -0.3790  -24.1460 C   0  0  0  0  0  0  0  0  0  0  0  0
  2  1  2  0
  3  2  1  0
  4  3  1  0
  5  4  1  0
  6  5  2  0
  7  6  1  0
  8  7  2  0
  9  8  1  0
 10  5  1  0
 10  9  2  0
 11 10  1  0
 12 11  2  0
 12  4  1  0
 13  2  1  0
 14 13  1  0
 15 14  2  0
 16 15  1  0
 17 14  1  0
 18 17  2  0
 19 18  1  0
 19 16  2  0
 20 19  1  0
 21 20  1  0
 22 20  1  0
 23 13  1  0
 24 23  1  0
 25 24  2  0
 26 25  1  0
 27 26  1  0
 28 26  2  0
 29 28  1  0
 30 29  2  0
 30 24  1  0
M  END
$$$$

     RDKit          3D

 22 25  0  0  0  0  0  0  0  0999 V2000
   -8.8850    0.0470  -21.3880 O   0  0  0  0  0  0  0  0  0  0  0  0
   -8.3510   -0.9970  -21.7390 C   0  0  0  0  0  0  0  0  0  0  0  0
   -7.3370   -1.5720  -21.0140 N   0  0  0  0  0  0  0  0  0  0  0  0
   -6.8570   -1.0860  -19.8160 C   0  0  0  0  0  0  0  0  0  0  0  0
   -5.6180   -0.5170  -19.6940 N   0  0  0  0  0  0  0  0  0  0  0  0
   -4.6210   -0.2890  -20.7570 C   0  0  1  0  0  0  0  0  0  0  0  0
   -4.7730    0.9140  -21.6200 C   0  0  0  0  0  0  0  0  0  0  0  0
   -3.6810    0.8530  -20.6020 C   0  0  0  0  0  0  0  0  0  0  0  0
   -5.5380   -0.1500  -18.3840 C   0  0  0  0  0  0  0  0  0  0  0  0
   -6.6300   -0.4480  -17.7470 N   0  0  0  0  0  0  0  0  0  0  0  0
   -7.4810   -1.0540  -18.6530 N   0  0  0  0  0  0  0  0  0  0  0  0
   -8.7590   -1.6980  -23.0540 C   0  0  1  0  0  0  0  0  0  0  0  0
   -8.4490   -3.2060  -23.1460 C   0  0  0  0  0  0  0  0  0  0  0  0
  -10.2790   -1.5540  -23.1130 C   0  0  0  0  0  0  0  0  0  0  0  0
  -11.0870   -2.1740  -22.1700 C   0  0  0  0  0  0  0  0  0  0  0  0
  -12.4550   -1.9550  -22.1550 C   0  0  0  0  0  0  0  0  0  0  0  0
  -13.0340   -1.1170  -23.0820 C   0  0  0  0  0  0  0  0  0  0  0  0
  -12.2570   -0.5000  -24.0510 C   0  0  0  0  0  0  0  0  0  0  0  0
  -10.8900   -0.7390  -24.0660 C   0  0  0  0  0  0  0  0  0  0  0  0
  -10.1920   -0.1650  -25.0970 O   0  0  0  0  0  0  0  0  0  0  0  0
   -8.8550    0.2210  -24.7250 C   0  0  0  0  0  0  0  0  0  0  0  0
   -8.0550   -0.9620  -24.2230 C   0  0  0  0  0  0  0  0  0  0  0  0
  2  1  2  0
  3  2  1  0
  4  3  1  0
  5  4  1  0
  6  5  1  1
  7  6  1  0
  8  7  1  0
  8  6  1  0
  9  5  1  0
 10  9  2  0
 11 10  1  0
 11  4  2  0
 12  2  1  0
 12 13  1  1
 14 12  1  0
 15 14  2  0
 16 15  1  0
 17 16  2  0
 18 17  1  0
 19 18  2  0
 19 14  1  0
 20 19  1  0
 21 20  1  0
 22 21  1  0
 22 12  1  0
M  END
$$$$

     RDKit          3D

 31 35  0  0  0  0  0  0  0  0999 V2000
   -9.3270    0.5260  -21.5770 O   0  0  0  0  0  0  0  0  0  0  0  0
   -8.8920   -0.5340  -21.9890 C   0  0  0  0  0  0  0  0  0  0  0  0
   -7.8300   -1.2090  -21.4700 N   0  0  0  0  0  0  0  0  0  0  0  0
   -7.0070   -0.7550  -20.3840 C   0  0  0  0  0  0  0  0  0  0  0  0
   -5.9020    0.0860  -20.5740 C   0  0  0  0  0  0  0  0  0  0  0  0
   -5.5730    0.6340  -21.9460 C   0  0  0  0  0  0  0  0  0  0  0  0
   -4.1710    1.2170  -22.0410 C   0  0  0  0  0  0  0  0  0  0  0  0
   -3.8730    2.1190  -20.8540 C   0  0  0  0  0  0  0  0  0  0  0  0
   -3.9360    1.3420  -19.5600 C   0  0  0  0  0  0  0  0  0  0  0  0
   -5.1610    0.4670  -19.4420 C   0  0  0  0  0  0  0  0  0  0  0  0
   -5.5860    0.0110  -18.2090 C   0  0  0  0  0  0  0  0  0  0  0  0
   -6.6520   -0.7710  -18.0130 N   0  0  0  0  0  0  0  0  0  0  0  0
   -7.3410   -1.1520  -19.0940 C   0  0  0  0  0  0  0  0  0  0  0  0
   -7.6320   -2.5310  -22.0940 C   0  0  0  0  0  0  0  0  0  0  0  0
   -8.9310   -2.7680  -22.8600 C   0  0  0  0  0  0  0  0  0  0  0  0
   -9.4460   -1.3420  -23.1700 C   0  0  1  0  0  0  0  0  0  0  0  0
  -10.9730   -1.2390  -23.2430 C   0  0  0  0  0  0  0  0  0  0  0  0
  -11.7730   -1.9990  -22.3890 C   0  0  0  0  0  0  0  0  0  0  0  0
  -13.1250   -1.7290  -22.3090 C   0  0  0  0  0  0  0  0  0  0  0  0
  -14.0870   -2.5810  -21.1280 Cl  0  0  0  0  0  0  0  0  0  0  0  0
  -13.7170   -0.7560  -23.0890 C   0  0  0  0  0  0  0  0  0  0  0  0
  -12.9340   -0.0390  -23.9770 C   0  0  0  0  0  0  0  0  0  0  0  0
  -11.5610   -0.2680  -24.0710 C   0  0  0  0  0  0  0  0  0  0  0  0
  -10.7380    0.5130  -25.0750 C   0  0  0  0  0  0  0  0  0  0  0  0
   -8.7820   -0.7440  -24.4380 C   0  0  0  0  0  0  0  0  0  0  0  0
   -9.3160    0.5940  -24.6970 N   0  0  1  0  0  0  0  0  0  0  0  0
   -8.5300    1.4040  -25.6290 C   0  0  0  0  0  0  0  0  0  0  0  0
   -7.5810    2.3950  -24.9720 C   0  0  0  0  0  0  0  0  0  0  0  0
   -6.4340    2.5480  -25.3910 O   0  0  0  0  0  0  0  0  0  0  0  0
   -8.0510    3.0750  -23.9350 N   0  0  0  0  0  0  0  0  0  0  0  0
   -7.2270    3.9910  -23.1700 C   0  0  0  0  0  0  0  0  0  0  0  0
  2  1  2  0
  3  2  1  0
  4  3  1  0
  5  4  1  0
  6  5  1  0
  7  6  1  0
  8  7  1  0
  9  8  1  0
 10  5  2  0
 10  9  1  0
 11 10  1  0
 12 11  2  0
 13 12  1  0
 13  4  2  0
 14  3  1  0
 15 14  1  0
 16 15  1  1
 16  2  1  0
 17 16  1  0
 18 17  2  0
 19 18  1  0
 20 19  1  0
 21 19  2  0
 22 21  1  0
 23 22  2  0
 23 17  1  0
 24 23  1  0
 25 16  1  0
 26 25  1  0
 26 24  1  0
 26 27  1  6
 28 27  1  0
 29 28  2  0
 30 28  1  0
 31 30  1  0
M  CHG  1  26   1
M  END
$$$$

     RDKit          3D

 34 39  0  0  0  0  0  0  0  0999 V2000
   -9.2300    0.4020  -21.5440 O   0  0  0  0  0  0  0  0  0  0  0  0
   -8.8060   -0.6720  -21.9430 C   0  0  0  0  0  0  0  0  0  0  0  0
   -7.7410   -1.3470  -21.4230 N   0  0  0  0  0  0  0  0  0  0  0  0
   -6.8990   -0.8790  -20.3620 C   0  0  0  0  0  0  0  0  0  0  0  0
   -5.7290   -0.0960  -20.5950 C   0  0  0  0  0  0  0  0  0  0  0  0
   -5.2590    0.2710  -21.8830 C   0  0  0  0  0  0  0  0  0  0  0  0
   -4.1530    1.0620  -22.0300 C   0  0  0  0  0  0  0  0  0  0  0  0
   -3.4710    1.5400  -20.9190 C   0  0  0  0  0  0  0  0  0  0  0  0
   -3.8790    1.2110  -19.6570 C   0  0  0  0  0  0  0  0  0  0  0  0
   -5.0040    0.3720  -19.4590 C   0  0  0  0  0  0  0  0  0  0  0  0
   -5.4730   -0.0060  -18.1750 C   0  0  0  0  0  0  0  0  0  0  0  0
   -6.5540   -0.7470  -17.9650 N   0  0  0  0  0  0  0  0  0  0  0  0
   -7.2400   -1.1530  -19.0410 C   0  0  0  0  0  0  0  0  0  0  0  0
   -7.5210   -2.6530  -22.0700 C   0  0  0  0  0  0  0  0  0  0  0  0
   -8.8390   -2.9110  -22.7970 C   0  0  0  0  0  0  0  0  0  0  0  0
   -9.3600   -1.4920  -23.1180 C   0  0  1  0  0  0  0  0  0  0  0  0
  -10.8910   -1.3960  -23.2090 C   0  0  0  0  0  0  0  0  0  0  0  0
  -11.4790   -0.5480  -24.1620 C   0  0  0  0  0  0  0  0  0  0  0  0
  -12.8620   -0.3600  -24.1430 C   0  0  0  0  0  0  0  0  0  0  0  0
  -13.6560   -0.9920  -23.2030 C   0  0  0  0  0  0  0  0  0  0  0  0
  -11.7000   -2.0780  -22.2970 C   0  0  0  0  0  0  0  0  0  0  0  0
  -13.0650   -1.8520  -22.2990 C   0  0  0  0  0  0  0  0  0  0  0  0
  -14.0540   -2.6390  -21.0950 Cl  0  0  0  0  0  0  0  0  0  0  0  0
   -8.6600   -0.9290  -24.3820 C   0  0  0  0  0  0  0  0  0  0  0  0
   -9.2450    0.3610  -24.7410 N   0  0  2  0  0  0  0  0  0  0  0  0
  -10.6390    0.1850  -25.1860 C   0  0  0  0  0  0  0  0  0  0  0  0
   -8.4320    1.1660  -25.6500 C   0  0  0  0  0  0  0  0  0  0  0  0
   -7.4280    2.0530  -24.9300 C   0  0  0  0  0  0  0  0  0  0  0  0
   -6.3070    2.2620  -25.3970 O   0  0  0  0  0  0  0  0  0  0  0  0
   -7.8430    2.5550  -23.7680 N   0  0  0  0  0  0  0  0  0  0  0  0
   -7.0180    3.4180  -22.9290 C   0  0  0  0  0  0  0  0  0  0  0  0
   -7.0390    4.8610  -23.3980 C   0  0  2  0  0  0  0  0  0  0  0  0
   -6.7900    5.9290  -22.3820 C   0  0  0  0  0  0  0  0  0  0  0  0
   -8.1610    5.7400  -22.9510 C   0  0  0  0  0  0  0  0  0  0  0  0
  2  1  2  0
  3  2  1  0
  4  3  1  0
  5  4  1  0
  6  5  2  0
  7  6  1  0
  8  7  2  0
  9  8  1  0
 10  5  1  0
 10  9  2  0
 11 10  1  0
 12 11  2  0
 13 12  1  0
 13  4  2  0
 14  3  1  0
 15 14  1  0
 16 15  1  1
 16  2  1  0
 17 16  1  0
 18 17  1  0
 19 18  2  0
 20 19  1  0
 21 17  2  0
 22 21  1  0
 22 20  2  0
 23 22  1  0
 24 16  1  0
 25 24  1  0
 26 18  1  0
 26 25  1  0
 25 27  1  6
 28 27  1  0
 29 28  2  0
 30 28  1  0
 31 30  1  0
 32 31  1  1
 33 32  1  0
 34 32  1  0
 34 33  1  0
M  CHG  1  25   1
M  END
$$$$

     RDKit          3D

 24 26  0  0  0  0  0  0  0  0999 V2000
   -6.3350   -0.4130  -17.6210 N   0  0  0  0  0  0  0  0  0  0  0  0
  -11.8150    3.5100  -22.6360 N   0  0  0  0  0  0  0  0  0  0  0  0
   -5.3090   -0.2420  -20.2300 C   0  0  0  0  0  0  0  0  0  0  0  0
  -13.0170   -0.6920  -23.0540 C   0  0  0  0  0  0  0  0  0  0  0  0
  -12.4040    1.4680  -23.8820 O   0  0  0  0  0  0  0  0  0  0  0  0
  -10.3090   -1.3690  -22.9670 C   0  0  0  0  0  0  0  0  0  0  0  0
   -4.7060    0.4240  -19.1670 C   0  0  0  0  0  0  0  0  0  0  0  0
  -10.7050   -0.1300  -23.4570 C   0  0  0  0  0  0  0  0  0  0  0  0
   -8.2580   -0.9470  -21.5910 C   0  0  0  0  0  0  0  0  0  0  0  0
   -6.4630   -1.0030  -19.9460 C   0  0  0  0  0  0  0  0  0  0  0  0
   -6.9200   -1.0650  -18.6310 C   0  0  0  0  0  0  0  0  0  0  0  0
  -12.6910    2.3030  -22.7490 C   0  0  2  0  0  0  0  0  0  0  0  0
  -12.6050   -1.9290  -22.6000 C   0  0  0  0  0  0  0  0  0  0  0  0
  -11.2730   -2.2780  -22.5490 C   0  0  0  0  0  0  0  0  0  0  0  0
  -12.0490    0.2030  -23.4790 C   0  0  0  0  0  0  0  0  0  0  0  0
  -13.7980    3.2690  -23.1850 C   0  0  0  0  0  0  0  0  0  0  0  0
   -4.7710   -0.0930  -21.6300 C   0  0  0  0  0  0  0  0  0  0  0  0
   -7.2120   -1.5680  -21.0040 N   0  0  0  0  0  0  0  0  0  0  0  0
   -8.6980    0.1360  -21.2160 O   0  0  0  0  0  0  0  0  0  0  0  0
  -12.9850    5.5240  -22.3350 O   0  0  0  0  0  0  0  0  0  0  0  0
   -8.8410   -1.6790  -22.7840 C   0  0  0  0  0  0  0  0  0  0  0  0
   -5.2490    0.3190  -17.9020 C   0  0  0  0  0  0  0  0  0  0  0  0
  -12.8660    4.3490  -22.6670 C   0  0  0  0  0  0  0  0  0  0  0  0
  -13.8040   -3.0960  -22.1230 Cl  0  0  0  0  0  0  0  0  0  0  0  0
  7  3  1  0
  8  6  1  0
 10  3  2  0
 11 10  1  0
 11  1  2  0
 12  5  1  6
 12  2  1  0
 13  4  2  0
 14 13  1  0
 14  6  2  0
 15  5  1  0
 15  4  1  0
 15  8  2  0
 16 12  1  0
 17  3  1  0
 18 10  1  0
 18  9  1  0
 19  9  2  0
 21  6  1  0
 21  9  1  0
 22  1  1  0
 22  7  2  0
 23 16  1  0
 23  2  1  0
 23 20  2  0
 24 13  1  0
M  END
$$$$

     RDKit          3D

 30 33  0  0  0  0  0  0  0  0999 V2000
  -13.7080   -2.8830  -21.6000 Cl  0  0  0  0  0  0  0  0  0  0  0  0
  -12.5850   -2.0330  -22.6210 C   0  0  0  0  0  0  0  0  0  0  0  0
  -11.2330   -2.2940  -22.5000 C   0  0  0  0  0  0  0  0  0  0  0  0
  -13.0630   -1.1150  -23.5260 C   0  0  0  0  0  0  0  0  0  0  0  0
  -12.1730   -0.4700  -24.3600 C   0  0  0  0  0  0  0  0  0  0  0  0
  -10.8030   -0.7180  -24.2820 C   0  0  0  0  0  0  0  0  0  0  0  0
   -9.8910   -0.0740  -25.2990 C   0  0  0  0  0  0  0  0  0  0  0  0
   -8.5010   -0.0970  -24.8310 N   0  0  0  0  0  0  0  0  0  0  0  0
   -7.4170    0.9020  -25.4490 S   0  0  1  0  0  0  0  0  0  0  0  0
   -6.1660    0.6520  -24.8230 O   0  0  0  0  0  0  0  0  0  0  0  0
   -7.5490    0.8790  -26.8650 O   0  0  0  0  0  0  0  0  0  0  0  0
   -7.9970    2.2890  -24.9040 N   0  0  0  0  0  0  0  0  0  0  0  0
   -7.5230    2.7820  -23.6060 C   0  0  0  0  0  0  0  0  0  0  0  0
   -8.3240    3.3310  -25.8850 C   0  0  0  0  0  0  0  0  0  0  0  0
  -10.3240   -1.6220  -23.3160 C   0  0  0  0  0  0  0  0  0  0  0  0
   -8.8300   -1.8350  -23.1260 C   0  0  1  0  0  0  0  0  0  0  0  0
   -8.0500   -1.4260  -24.3780 C   0  0  0  0  0  0  0  0  0  0  0  0
   -8.3400   -1.0420  -21.9150 C   0  0  0  0  0  0  0  0  0  0  0  0
   -8.8970   -0.0090  -21.5380 O   0  0  0  0  0  0  0  0  0  0  0  0
   -7.2340   -1.5560  -21.3170 N   0  0  0  0  0  0  0  0  0  0  0  0
   -6.5370   -1.0430  -20.1970 C   0  0  0  0  0  0  0  0  0  0  0  0
   -5.4060   -0.1930  -20.4170 C   0  0  0  0  0  0  0  0  0  0  0  0
   -4.8650    0.0840  -21.6990 C   0  0  0  0  0  0  0  0  0  0  0  0
   -3.7940    0.9180  -21.8440 C   0  0  0  0  0  0  0  0  0  0  0  0
   -3.2170    1.5310  -20.7360 C   0  0  0  0  0  0  0  0  0  0  0  0
   -3.6980    1.2910  -19.4810 C   0  0  0  0  0  0  0  0  0  0  0  0
   -4.7960    0.4180  -19.2830 C   0  0  0  0  0  0  0  0  0  0  0  0
   -5.3200    0.1100  -18.0040 C   0  0  0  0  0  0  0  0  0  0  0  0
   -6.3500   -0.7010  -17.7990 N   0  0  0  0  0  0  0  0  0  0  0  0
   -6.9340   -1.2470  -18.8750 C   0  0  0  0  0  0  0  0  0  0  0  0
  2  1  1  0
  3  2  2  0
  4  2  1  0
  5  4  2  0
  6  5  1  0
  7  6  1  0
  8  7  1  0
  9  8  1  0
 10  9  2  0
 11  9  2  0
  9 12  1  1
 13 12  1  0
 14 12  1  0
 15  3  1  0
 15  6  2  0
 16 15  1  0
 17 16  1  0
 17  8  1  0
 16 18  1  1
 19 18  2  0
 20 18  1  0
 21 20  1  0
 22 21  1  0
 23 22  2  0
 24 23  1  0
 25 24  2  0
 26 25  1  0
 27 26  2  0
 27 22  1  0
 28 27  1  0
 29 28  2  0
 30 29  1  0
 30 21  2  0
M  END
$$$$

     RDKit          3D

 20 22  0  0  0  0  0  0  0  0999 V2000
   -8.4740   -0.4750  -21.1640 O   0  0  0  0  0  0  0  0  0  0  0  0
   -7.8590   -1.3330  -21.8000 C   0  0  0  0  0  0  0  0  0  0  0  0
   -8.5590   -2.3310  -22.7000 C   0  0  0  0  0  0  0  0  0  0  0  0
   -9.9830   -1.9390  -23.0220 C   0  0  0  0  0  0  0  0  0  0  0  0
  -10.2690   -0.8680  -23.8600 C   0  0  0  0  0  0  0  0  0  0  0  0
  -11.5800   -0.4610  -24.0700 C   0  0  0  0  0  0  0  0  0  0  0  0
  -12.6220   -1.1160  -23.4310 C   0  0  0  0  0  0  0  0  0  0  0  0
  -11.0310   -2.6160  -22.4180 C   0  0  0  0  0  0  0  0  0  0  0  0
  -12.3230   -2.1830  -22.6040 C   0  0  0  0  0  0  0  0  0  0  0  0
  -13.6000   -2.9570  -21.7060 Cl  0  0  0  0  0  0  0  0  0  0  0  0
   -6.5120   -1.4380  -21.8200 N   0  0  0  0  0  0  0  0  0  0  0  0
   -5.5690   -0.6210  -21.1490 C   0  0  0  0  0  0  0  0  0  0  0  0
   -5.6620   -0.4650  -19.7550 C   0  0  0  0  0  0  0  0  0  0  0  0
   -6.4960   -0.9200  -18.7050 C   0  0  0  0  0  0  0  0  0  0  0  0
   -6.1260   -0.4230  -17.5420 N   0  0  0  0  0  0  0  0  0  0  0  0
   -5.0410    0.3700  -17.7970 N   0  0  0  0  0  0  0  0  0  0  0  0
   -4.7220    0.3680  -19.1190 C   0  0  0  0  0  0  0  0  0  0  0  0
   -3.7140    1.0160  -19.8230 C   0  0  0  0  0  0  0  0  0  0  0  0
   -3.6330    0.8340  -21.1950 C   0  0  0  0  0  0  0  0  0  0  0  0
   -4.5490    0.0300  -21.8540 C   0  0  0  0  0  0  0  0  0  0  0  0
  2  1  2  0
  3  2  1  0
  4  3  1  0
  5  4  2  0
  6  5  1  0
  7  6  2  0
  8  4  1  0
  9  8  2  0
  9  7  1  0
 10  9  1  0
 11  2  1  0
 12 11  1  0
 13 12  2  0
 14 13  1  0
 15 14  2  0
 16 15  1  0
 17 13  1  0
 17 16  1  0
 18 17  2  0
 19 18  1  0
 20 12  1  0
 20 19  2  0
M  END
$$$$

     RDKit          3D

 23 25  0  0  0  0  0  0  0  0999 V2000
   -6.2050   -0.9570  -21.3040 N   0  0  0  0  0  0  0  0  0  0  0  0
   -7.5740   -1.8650  -22.8580 N   0  0  0  0  0  0  0  0  0  0  0  0
  -13.5160   -3.3540  -25.2270 C   0  0  0  0  0  0  0  0  0  0  0  0
   -5.7660   -0.6620  -20.0010 C   0  0  0  0  0  0  0  0  0  0  0  0
   -7.6970   -0.5840  -26.0960 O   0  0  0  0  0  0  0  0  0  0  0  0
  -11.1030   -3.0160  -23.8660 C   0  0  0  0  0  0  0  0  0  0  0  0
   -4.6280    0.1210  -19.8620 C   0  0  0  0  0  0  0  0  0  0  0  0
   -8.7060   -2.0270  -23.7790 C   0  0  1  0  0  0  0  0  0  0  0  0
   -8.1650    0.1380  -24.9440 C   0  0  0  0  0  0  0  0  0  0  0  0
   -6.5660   -0.8500  -18.8760 C   0  0  0  0  0  0  0  0  0  0  0  0
   -5.2330    0.4960  -17.6010 C   0  0  0  0  0  0  0  0  0  0  0  0
  -12.4700   -4.2190  -25.4540 C   0  0  0  0  0  0  0  0  0  0  0  0
  -12.1730   -2.1600  -23.6380 C   0  0  0  0  0  0  0  0  0  0  0  0
   -9.2280   -0.6370  -24.1820 C   0  0  0  0  0  0  0  0  0  0  0  0
  -11.2690   -4.0520  -24.7790 C   0  0  0  0  0  0  0  0  0  0  0  0
  -13.3680   -2.3240  -24.3190 C   0  0  0  0  0  0  0  0  0  0  0  0
   -8.1750   -2.7380  -25.0330 C   0  0  0  0  0  0  0  0  0  0  0  0
   -7.4930   -1.1230  -21.7340 C   0  0  0  0  0  0  0  0  0  0  0  0
   -6.3140   -0.2880  -17.6910 N   0  0  0  0  0  0  0  0  0  0  0  0
   -8.4660   -0.5910  -21.1910 O   0  0  0  0  0  0  0  0  0  0  0  0
   -9.8120   -2.8610  -23.0970 C   0  0  0  0  0  0  0  0  0  0  0  0
   -4.3670    0.7250  -18.6470 C   0  0  0  0  0  0  0  0  0  0  0  0
   -7.1510   -1.8680  -25.7380 C   0  0  0  0  0  0  0  0  0  0  0  0
  4  1  1  0
  7  4  2  0
  8  2  1  0
  9  5  1  0
 10  4  1  0
 12  3  2  0
 13  6  1  0
 14  9  1  0
 14  8  1  0
 15 12  1  0
 15  6  2  0
 16 13  2  0
 16  3  1  0
 17  8  1  0
 18  2  1  0
 18  1  1  0
 19 10  2  0
 19 11  1  0
 20 18  2  0
 21  6  1  0
  8 21  1  1
 22 11  2  0
 22  7  1  0
 23 17  1  0
 23  5  1  0
M  END
$$$$

     RDKit          3D

 21 23  0  0  0  0  0  0  0  0999 V2000
   -8.8810   -0.3260  -21.1480 O   0  0  0  0  0  0  0  0  0  0  0  0
   -8.1960   -1.2510  -21.5790 C   0  0  0  0  0  0  0  0  0  0  0  0
   -8.6190   -2.0640  -22.7890 C   0  0  0  0  0  0  0  0  0  0  0  0
  -10.0400   -1.7950  -23.2340 C   0  0  0  0  0  0  0  0  0  0  0  0
  -10.3050   -1.0530  -24.3780 C   0  0  0  0  0  0  0  0  0  0  0  0
  -11.6100   -0.7290  -24.7210 C   0  0  0  0  0  0  0  0  0  0  0  0
  -12.6580   -1.1480  -23.9200 C   0  0  0  0  0  0  0  0  0  0  0  0
  -11.1110   -2.2380  -22.4630 C   0  0  0  0  0  0  0  0  0  0  0  0
  -12.4230   -1.9250  -22.7870 C   0  0  0  0  0  0  0  0  0  0  0  0
  -13.5670   -2.4490  -21.9550 C   0  0  0  0  0  0  0  0  0  0  0  0
   -7.0160   -1.6230  -21.0320 N   0  0  0  0  0  0  0  0  0  0  0  0
   -6.3300   -1.0230  -19.9490 C   0  0  0  0  0  0  0  0  0  0  0  0
   -5.2560   -0.1220  -20.2340 C   0  0  0  0  0  0  0  0  0  0  0  0
   -4.7560    0.1260  -21.5400 C   0  0  0  0  0  0  0  0  0  0  0  0
   -3.7330    1.0100  -21.7440 C   0  0  0  0  0  0  0  0  0  0  0  0
   -3.1580    1.6880  -20.6770 C   0  0  0  0  0  0  0  0  0  0  0  0
   -3.6000    1.4800  -19.4020 C   0  0  0  0  0  0  0  0  0  0  0  0
   -4.6540    0.5700  -19.1410 C   0  0  0  0  0  0  0  0  0  0  0  0
   -5.1460    0.3030  -17.8400 C   0  0  0  0  0  0  0  0  0  0  0  0
   -6.1310   -0.5430  -17.5730 N   0  0  0  0  0  0  0  0  0  0  0  0
   -6.6930   -1.1830  -18.6090 C   0  0  0  0  0  0  0  0  0  0  0  0
  2  1  2  0
  3  2  1  0
  4  3  1  0
  5  4  2  0
  6  5  1  0
  7  6  2  0
  8  4  1  0
  9  8  2  0
  9  7  1  0
 10  9  1  0
 11  2  1  0
 12 11  1  0
 13 12  1  0
 14 13  2  0
 15 14  1  0
 16 15  2  0
 17 16  1  0
 18 17  2  0
 18 13  1  0
 19 18  1  0
 20 19  2  0
 21 20  1  0
 21 12  2  0
M  END
$$$$

     RDKit          3D

 24 27  0  0  0  0  0  0  0  0999 V2000
   -8.6400   -0.0020  -21.3250 O   0  0  0  0  0  0  0  0  0  0  0  0
   -8.0420   -0.8890  -21.9130 C   0  0  0  0  0  0  0  0  0  0  0  0
   -8.4180   -1.2600  -23.3400 C   0  0  2  0  0  0  0  0  0  0  0  0
   -9.9100   -1.5160  -23.4430 C   0  0  0  0  0  0  0  0  0  0  0  0
  -10.6470   -0.9860  -24.4950 C   0  0  0  0  0  0  0  0  0  0  0  0
  -11.9860   -1.2880  -24.6500 C   0  0  0  0  0  0  0  0  0  0  0  0
  -10.5580   -2.3300  -22.5240 C   0  0  0  0  0  0  0  0  0  0  0  0
  -11.8950   -2.6490  -22.6700 C   0  0  0  0  0  0  0  0  0  0  0  0
  -12.5880   -2.1430  -23.7490 C   0  0  0  0  0  0  0  0  0  0  0  0
  -14.2140   -2.6900  -24.0500 Cl  0  0  0  0  0  0  0  0  0  0  0  0
   -6.9890   -1.5530  -21.3420 N   0  0  0  0  0  0  0  0  0  0  0  0
   -6.3100   -2.7430  -21.8980 C   0  0  0  0  0  0  0  0  0  0  0  0
   -7.1250   -3.4060  -22.9850 C   0  0  0  0  0  0  0  0  0  0  0  0
   -7.5790   -2.3730  -24.0080 C   0  0  0  0  0  0  0  0  0  0  0  0
   -6.2690   -0.9390  -20.2680 C   0  0  0  0  0  0  0  0  0  0  0  0
   -5.1600   -0.0770  -20.5230 C   0  0  0  0  0  0  0  0  0  0  0  0
   -4.7020    0.2740  -21.8230 C   0  0  0  0  0  0  0  0  0  0  0  0
   -3.6340    1.1070  -21.9900 C   0  0  0  0  0  0  0  0  0  0  0  0
   -2.9690    1.6340  -20.8960 C   0  0  0  0  0  0  0  0  0  0  0  0
   -3.3770    1.3420  -19.6280 C   0  0  0  0  0  0  0  0  0  0  0  0
   -4.4820    0.4840  -19.4060 C   0  0  0  0  0  0  0  0  0  0  0  0
   -4.9680    0.1700  -18.1170 C   0  0  0  0  0  0  0  0  0  0  0  0
   -6.0090   -0.6150  -17.8840 N   0  0  0  0  0  0  0  0  0  0  0  0
   -6.6250   -1.1530  -18.9430 C   0  0  0  0  0  0  0  0  0  0  0  0
  2  1  2  0
  3  2  1  0
  3  4  1  1
  5  4  2  0
  6  5  1  0
  7  4  1  0
  8  7  2  0
  9  8  1  0
  9  6  2  0
 10  9  1  0
 11  2  1  0
 12 11  1  0
 13 12  1  0
 14 13  1  0
 14  3  1  0
 15 11  1  0
 16 15  1  0
 17 16  2  0
 18 17  1  0
 19 18  2  0
 20 19  1  0
 21 20  2  0
 21 16  1  0
 22 21  1  0
 23 22  2  0
 24 23  1  0
 24 15  2  0
M  END
$$$$

     RDKit          3D

 28 31  0  0  0  0  0  0  0  0999 V2000
  -13.9170   -2.9170  -21.2280 Cl  0  0  0  0  0  0  0  0  0  0  0  0
  -13.0060   -1.9450  -22.3450 C   0  0  0  0  0  0  0  0  0  0  0  0
  -13.6740   -1.0570  -23.1620 C   0  0  0  0  0  0  0  0  0  0  0  0
  -12.9480   -0.2180  -23.9870 C   0  0  0  0  0  0  0  0  0  0  0  0
  -11.5630   -0.2710  -23.9610 C   0  0  0  0  0  0  0  0  0  0  0  0
  -10.9090    0.6010  -24.7920 O   0  0  0  0  0  0  0  0  0  0  0  0
   -9.6770    0.0750  -25.3120 C   0  0  0  0  0  0  0  0  0  0  0  0
   -8.7060   -0.2480  -24.2040 C   0  0  0  0  0  0  0  0  0  0  0  0
  -11.6260   -2.0320  -22.3400 C   0  0  0  0  0  0  0  0  0  0  0  0
  -10.8790   -1.1680  -23.1390 C   0  0  0  0  0  0  0  0  0  0  0  0
   -9.3610   -1.1540  -23.1370 C   0  0  2  0  0  0  0  0  0  0  0  0
   -8.8000   -0.8010  -21.7610 C   0  0  0  0  0  0  0  0  0  0  0  0
   -9.1690    0.1890  -21.1510 O   0  0  0  0  0  0  0  0  0  0  0  0
   -7.7920   -1.6310  -21.2100 N   0  0  0  0  0  0  0  0  0  0  0  0
   -7.5680   -2.9630  -21.6060 C   0  0  0  0  0  0  0  0  0  0  0  0
   -8.4030   -3.5610  -22.2660 O   0  0  0  0  0  0  0  0  0  0  0  0
   -6.3120   -3.6600  -21.1190 C   0  0  0  0  0  0  0  0  0  0  0  0
   -6.6130   -4.9550  -20.3720 C   0  0  0  0  0  0  0  0  0  0  0  0
   -6.9870   -1.0910  -20.1380 C   0  0  0  0  0  0  0  0  0  0  0  0
   -7.3420   -1.2670  -18.8060 C   0  0  0  0  0  0  0  0  0  0  0  0
   -6.7040   -0.6950  -17.7750 N   0  0  0  0  0  0  0  0  0  0  0  0
   -5.6910    0.1170  -18.0510 C   0  0  0  0  0  0  0  0  0  0  0  0
   -5.2310    0.4040  -19.3570 C   0  0  0  0  0  0  0  0  0  0  0  0
   -5.8880   -0.2360  -20.4490 C   0  0  0  0  0  0  0  0  0  0  0  0
   -4.1270    1.2510  -19.6180 C   0  0  0  0  0  0  0  0  0  0  0  0
   -3.6850    1.4410  -20.8940 C   0  0  0  0  0  0  0  0  0  0  0  0
   -4.3060    0.8050  -21.9610 C   0  0  0  0  0  0  0  0  0  0  0  0
   -5.3810   -0.0130  -21.7540 C   0  0  0  0  0  0  0  0  0  0  0  0
  2  1  1  0
  3  2  2  0
  4  3  1  0
  5  4  2  0
  6  5  1  0
  7  6  1  0
  8  7  1  0
  9  2  1  0
 10  9  2  0
 10  5  1  0
 11 10  1  0
 11  8  1  0
 11 12  1  1
 13 12  2  0
 14 12  1  0
 15 14  1  0
 16 15  2  0
 17 15  1  0
 18 17  1  0
 19 14  1  0
 20 19  2  0
 21 20  1  0
 22 21  2  0
 23 22  1  0
 24 19  1  0
 24 23  2  0
 25 23  1  0
 26 25  2  0
 27 26  1  0
 28 24  1  0
 28 27  2  0
M  END
$$$$

     RDKit          3D

 26 29  0  0  0  0  0  0  0  0999 V2000
   -9.2430    0.0850  -21.3680 O   0  0  0  0  0  0  0  0  0  0  0  0
   -8.7370   -0.9460  -21.7910 C   0  0  0  0  0  0  0  0  0  0  0  0
   -9.3540   -1.7000  -22.9920 C   0  0  1  0  0  0  0  0  0  0  0  0
  -10.8580   -1.4460  -23.0460 C   0  0  0  0  0  0  0  0  0  0  0  0
  -11.6910   -2.1240  -22.1620 C   0  0  0  0  0  0  0  0  0  0  0  0
  -13.0500   -1.8900  -22.1930 C   0  0  0  0  0  0  0  0  0  0  0  0
  -14.0760   -2.7760  -21.1010 Cl  0  0  0  0  0  0  0  0  0  0  0  0
  -13.6180   -0.9980  -23.0820 C   0  0  0  0  0  0  0  0  0  0  0  0
  -12.8090   -0.3450  -23.9940 C   0  0  0  0  0  0  0  0  0  0  0  0
  -11.4420   -0.5670  -23.9710 C   0  0  0  0  0  0  0  0  0  0  0  0
  -10.7130    0.1930  -24.8520 O   0  0  0  0  0  0  0  0  0  0  0  0
   -9.2680    0.1840  -24.6880 C   0  0  0  0  0  0  0  0  0  0  0  0
   -8.7130   -1.1680  -24.2940 C   0  0  0  0  0  0  0  0  0  0  0  0
   -9.1080   -3.2260  -22.8850 C   0  0  0  0  0  0  0  0  0  0  0  0
   -7.7330   -3.6490  -23.1570 N   0  0  0  0  0  0  0  0  0  0  0  0
   -7.7270   -1.5130  -21.1200 N   0  0  0  0  0  0  0  0  0  0  0  0
   -6.8090   -1.0730  -20.1670 C   0  0  0  0  0  0  0  0  0  0  0  0
   -5.7620   -0.1500  -20.4840 C   0  0  0  0  0  0  0  0  0  0  0  0
   -5.2950    0.0910  -21.8040 C   0  0  0  0  0  0  0  0  0  0  0  0
   -4.2180    0.9040  -22.0330 C   0  0  0  0  0  0  0  0  0  0  0  0
   -3.5500    1.5080  -20.9770 C   0  0  0  0  0  0  0  0  0  0  0  0
   -3.9690    1.3200  -19.6890 C   0  0  0  0  0  0  0  0  0  0  0  0
   -5.0840    0.4930  -19.4080 C   0  0  0  0  0  0  0  0  0  0  0  0
   -5.5340    0.2270  -18.0920 C   0  0  0  0  0  0  0  0  0  0  0  0
   -6.5280   -0.5980  -17.8010 N   0  0  0  0  0  0  0  0  0  0  0  0
   -7.1170   -1.2400  -18.8170 C   0  0  0  0  0  0  0  0  0  0  0  0
  2  1  2  0
  3  2  1  0
  4  3  1  0
  5  4  2  0
  6  5  1  0
  7  6  1  0
  8  6  2  0
  9  8  1  0
 10  9  2  0
 10  4  1  0
 11 10  1  0
 12 11  1  0
 13 12  1  0
 13  3  1  0
  3 14  1  1
 15 14  1  0
 16  2  1  0
 17 16  1  0
 18 17  1  0
 19 18  2  0
 20 19  1  0
 21 20  2  0
 22 21  1  0
 23 18  1  0
 23 22  2  0
 24 23  1  0
 25 24  2  0
 26 25  1  0
 26 17  2  0
M  CHG  1  15   1
M  END
$$$$

     RDKit          3D

 23 25  0  0  0  0  0  0  0  0999 V2000
   -8.6790   -0.4700  -21.1360 O   0  0  0  0  0  0  0  0  0  0  0  0
   -8.0420   -1.5070  -21.3140 C   0  0  0  0  0  0  0  0  0  0  0  0
   -8.4130   -2.5070  -22.3940 C   0  0  0  0  0  0  0  0  0  0  0  0
   -9.8030   -2.1770  -22.8840 C   0  0  0  0  0  0  0  0  0  0  0  0
  -10.9210   -2.6600  -22.2100 C   0  0  0  0  0  0  0  0  0  0  0  0
  -12.1770   -2.2050  -22.5490 C   0  0  0  0  0  0  0  0  0  0  0  0
  -13.5510   -2.7790  -21.6500 Cl  0  0  0  0  0  0  0  0  0  0  0  0
  -12.3650   -1.2870  -23.5630 C   0  0  0  0  0  0  0  0  0  0  0  0
  -11.2670   -0.8250  -24.2680 C   0  0  0  0  0  0  0  0  0  0  0  0
   -9.9930   -1.2800  -23.9360 C   0  0  0  0  0  0  0  0  0  0  0  0
   -8.8480   -0.9170  -24.5890 O   0  0  0  0  0  0  0  0  0  0  0  0
   -8.9420    0.1030  -25.5840 C   0  0  0  0  0  0  0  0  0  0  0  0
   -6.9360   -1.8420  -20.6130 N   0  0  0  0  0  0  0  0  0  0  0  0
   -6.2410   -1.0780  -19.6640 C   0  0  0  0  0  0  0  0  0  0  0  0
   -5.0890   -0.3570  -20.0920 C   0  0  0  0  0  0  0  0  0  0  0  0
   -4.6260   -0.3330  -21.4320 C   0  0  0  0  0  0  0  0  0  0  0  0
   -3.5350    0.4070  -21.7840 C   0  0  0  0  0  0  0  0  0  0  0  0
   -2.8490    1.1500  -20.8380 C   0  0  0  0  0  0  0  0  0  0  0  0
   -3.2630    1.1740  -19.5410 C   0  0  0  0  0  0  0  0  0  0  0  0
   -4.3930    0.4290  -19.1300 C   0  0  0  0  0  0  0  0  0  0  0  0
   -4.9000    0.4490  -17.8080 C   0  0  0  0  0  0  0  0  0  0  0  0
   -5.9710   -0.2270  -17.4100 N   0  0  0  0  0  0  0  0  0  0  0  0
   -6.6140   -0.9640  -18.3240 C   0  0  0  0  0  0  0  0  0  0  0  0
  2  1  2  0
  3  2  1  0
  4  3  1  0
  5  4  2  0
  6  5  1  0
  7  6  1  0
  8  6  2  0
  9  8  1  0
 10  9  2  0
 10  4  1  0
 11 10  1  0
 12 11  1  0
 13  2  1  0
 14 13  1  0
 15 14  1  0
 16 15  2  0
 17 16  1  0
 18 17  2  0
 19 18  1  0
 20 19  2  0
 20 15  1  0
 21 20  1  0
 22 21  2  0
 23 22  1  0
 23 14  2  0
M  END
$$$$

     RDKit          3D

 21 23  0  0  0  0  0  0  0  0999 V2000
   -6.2520   -0.3700  -17.6480 N   0  0  0  0  0  0  0  0  0  0  0  0
   -9.2020   -1.7810  -23.6820 N   0  0  0  0  0  0  0  0  0  0  0  0
   -5.0810   -0.2430  -20.2040 C   0  0  0  0  0  0  0  0  0  0  0  0
  -12.5340   -0.6880  -24.2860 C   0  0  0  0  0  0  0  0  0  0  0  0
   -8.9620   -1.0050  -24.7940 C   0  0  0  0  0  0  0  0  0  0  0  0
   -4.5570    0.4650  -19.1290 C   0  0  0  0  0  0  0  0  0  0  0  0
   -7.8580   -1.4790  -21.6760 C   0  0  0  0  0  0  0  0  0  0  0  0
   -6.1970   -1.0580  -19.9520 C   0  0  0  0  0  0  0  0  0  0  0  0
   -6.7430   -1.0850  -18.6660 C   0  0  0  0  0  0  0  0  0  0  0  0
  -11.1610   -0.9200  -24.3780 C   0  0  0  0  0  0  0  0  0  0  0  0
  -12.6590   -2.1350  -22.3870 C   0  0  0  0  0  0  0  0  0  0  0  0
  -10.1170   -0.4670  -25.2460 C   0  0  0  0  0  0  0  0  0  0  0  0
  -13.2820   -1.2860  -23.2880 C   0  0  0  0  0  0  0  0  0  0  0  0
  -11.2970   -2.3770  -22.4230 C   0  0  0  0  0  0  0  0  0  0  0  0
   -4.5430   -0.0340  -21.5960 C   0  0  0  0  0  0  0  0  0  0  0  0
   -6.7470   -1.8220  -21.0020 N   0  0  0  0  0  0  0  0  0  0  0  0
   -8.5490   -0.4960  -21.4100 O   0  0  0  0  0  0  0  0  0  0  0  0
   -8.1760   -2.3930  -22.8480 C   0  0  0  0  0  0  0  0  0  0  0  0
   -5.1680    0.3800  -17.8910 C   0  0  0  0  0  0  0  0  0  0  0  0
  -10.5610   -1.7550  -23.4200 C   0  0  0  0  0  0  0  0  0  0  0  0
  -13.6240   -2.9620  -21.2010 Cl  0  0  0  0  0  0  0  0  0  0  0  0
  5  2  1  0
  6  3  1  0
  8  3  2  0
  9  8  1  0
  9  1  2  0
 10  4  2  0
 12 10  1  0
 12  5  2  0
 13 11  2  0
 13  4  1  0
 14 11  1  0
 15  3  1  0
 16  8  1  0
 16  7  1  0
 17  7  2  0
 18  2  1  0
 18  7  1  0
 19  1  1  0
 19  6  2  0
 20 14  2  0
 20 10  1  0
 20  2  1  0
 21 11  1  0
M  END
$$$$

     RDKit          3D

 15 16  0  0  0  0  0  0  0  0999 V2000
  -22.7700   13.6240   -9.2190 C   0  0  0  0  0  0  0  0  0  0  0  0
  -21.6730   13.5810   -8.1570 C   0  0  2  0  0  0  0  0  0  0  0  0
  -20.9180   12.2580   -8.3730 C   0  0  2  0  0  0  0  0  0  0  0  0
  -21.3810   11.1550   -7.5670 C   0  0  0  0  0  0  0  0  0  0  0  0
  -22.7060   11.2870   -7.0190 C   0  0  0  0  0  0  0  0  0  0  0  0
  -22.9810   12.6200   -6.3380 C   0  0  0  0  0  0  0  0  0  0  0  0
  -22.9090   14.7880   -6.6690 C   0  0  0  0  0  0  0  0  0  0  0  0
  -22.1440   16.0750   -6.3590 C   0  0  0  0  0  0  0  0  0  0  0  0
  -21.8060   16.3530   -5.0400 C   0  0  0  0  0  0  0  0  0  0  0  0
  -21.1320   17.5270   -4.7270 C   0  0  0  0  0  0  0  0  0  0  0  0
  -20.8090   18.4280   -5.7310 C   0  0  0  0  0  0  0  0  0  0  0  0
  -21.1540   18.1620   -7.0490 C   0  0  0  0  0  0  0  0  0  0  0  0
  -21.8320   16.9870   -7.3640 C   0  0  0  0  0  0  0  0  0  0  0  0
  -22.2290   13.7630   -6.8240 N   0  0  2  0  0  0  0  0  0  0  0  0
  -19.5610   12.4870   -8.1080 O   0  0  0  0  0  0  0  0  0  0  0  0
  2  1  1  6
  3  2  1  0
  4  3  1  0
  5  4  1  0
  6  5  1  0
  8  7  1  0
  9  8  2  0
 10  9  1  0
 11 10  2  0
 12 11  1  0
 13  8  1  0
 13 12  2  0
 14  7  1  6
 14  6  1  0
 14  2  1  0
  3 15  1  1
M  CHG  1  14   1
M  END
$$$$

     RDKit          3D

 20 22  0  0  0  0  0  0  0  0999 V2000
   -6.7160   -3.2980  -21.1310 N   0  0  0  0  0  0  0  0  0  0  0  0
   -8.1570   -4.1710  -19.4590 C   0  0  0  0  0  0  0  0  0  0  0  0
   -5.7860   -4.4590  -19.4140 O   0  0  0  0  0  0  0  0  0  0  0  0
   -6.7680   -3.9890  -19.9800 C   0  0  0  0  0  0  0  0  0  0  0  0
  -11.9460    0.7070  -25.0170 C   0  0  0  0  0  0  0  0  0  0  0  0
  -10.9410    0.9900  -25.8840 C   0  0  0  0  0  0  0  0  0  0  0  0
   -9.9230    0.0580  -26.1210 C   0  0  0  0  0  0  0  0  0  0  0  0
   -9.9150   -1.1320  -25.4580 C   0  0  0  0  0  0  0  0  0  0  0  0
  -10.9330   -1.4650  -24.5270 C   0  0  0  0  0  0  0  0  0  0  0  0
   -7.7810   -4.4730  -23.0270 C   0  0  0  0  0  0  0  0  0  0  0  0
   -6.4850   -4.0560  -22.3630 C   0  0  0  0  0  0  0  0  0  0  0  0
   -7.7000   -2.2210  -21.2800 C   0  0  0  0  0  0  0  0  0  0  0  0
   -8.9540   -2.6590  -22.0130 C   0  0  0  0  0  0  0  0  0  0  0  0
   -9.8540   -3.7000  -23.9980 C   0  0  0  0  0  0  0  0  0  0  0  0
  -10.9670   -2.6980  -23.8160 C   0  0  0  0  0  0  0  0  0  0  0  0
  -11.9830   -2.9240  -22.9210 C   0  0  0  0  0  0  0  0  0  0  0  0
  -13.0120   -1.9900  -22.7180 C   0  0  0  0  0  0  0  0  0  0  0  0
  -13.0070   -0.8160  -23.3950 C   0  0  0  0  0  0  0  0  0  0  0  0
  -11.9710   -0.5160  -24.3110 C   0  0  0  0  0  0  0  0  0  0  0  0
   -8.6330   -3.3140  -23.2830 N   0  0  2  0  0  0  0  0  0  0  0  0
  4  3  2  0
  4  2  1  0
  4  1  1  0
  6  5  2  0
  7  6  1  0
  8  7  2  0
  9  8  1  0
 11 10  1  0
 11  1  1  0
 12  1  1  0
 13 12  1  0
 15  9  2  0
 15 14  1  0
 16 15  1  0
 17 16  2  0
 18 17  1  0
 19 18  2  0
 19  9  1  0
 19  5  1  0
 20 14  1  1
 20 13  1  0
 20 10  1  0
M  CHG  1  20   1
M  END
$$$$

     RDKit          3D

 20 21  0  0  0  0  0  0  0  0999 V2000
   -7.0710   -3.6550  -24.0190 N   0  0  0  0  0  0  0  0  0  0  0  0
   -5.4480   -6.3140  -29.3660 C   0  0  0  0  0  0  0  0  0  0  0  0
   -8.2580   -2.2920  -25.7130 O   0  0  0  0  0  0  0  0  0  0  0  0
   -6.4960   -5.9890  -28.3300 C   0  0  0  0  0  0  0  0  0  0  0  0
   -6.3420   -5.3290  -22.4530 C   0  0  0  0  0  0  0  0  0  0  0  0
   -5.9180   -4.4710  -23.6140 C   0  0  0  0  0  0  0  0  0  0  0  0
   -6.3330   -4.6130  -20.0970 C   0  0  0  0  0  0  0  0  0  0  0  0
   -6.9430   -3.7490  -19.0270 C   0  0  0  0  0  0  0  0  0  0  0  0
   -7.6060   -6.7980  -28.1560 C   0  0  0  0  0  0  0  0  0  0  0  0
   -8.5690   -6.5030  -27.2070 C   0  0  0  0  0  0  0  0  0  0  0  0
   -8.4520   -5.3810  -26.3900 C   0  0  0  0  0  0  0  0  0  0  0  0
   -9.5350   -5.1250  -25.3800 C   0  0  0  0  0  0  0  0  0  0  0  0
   -7.3320   -4.5590  -26.5710 C   0  0  0  0  0  0  0  0  0  0  0  0
   -6.3680   -4.8690  -27.5220 C   0  0  0  0  0  0  0  0  0  0  0  0
   -7.4820   -2.7400  -22.9450 C   0  0  0  0  0  0  0  0  0  0  0  0
   -7.8890   -3.5620  -21.7480 C   0  0  0  0  0  0  0  0  0  0  0  0
   -6.8250   -4.4930  -21.3520 N   0  0  0  0  0  0  0  0  0  0  0  0
   -5.8080   -2.5830  -25.8490 O   0  0  0  0  0  0  0  0  0  0  0  0
   -5.4470   -5.4060  -19.8060 O   0  0  0  0  0  0  0  0  0  0  0  0
   -7.1030   -3.1210  -25.5690 S   0  0  2  0  0  0  0  0  0  0  0  0
  4  2  1  0
  6  5  1  0
  6  1  1  0
  8  7  1  0
  9  4  2  0
 10  9  1  0
 11 10  2  0
 12 11  1  0
 13 11  1  0
 14  4  1  0
 14 13  2  0
 15  1  1  0
 16 15  1  0
 17  5  1  0
 17 16  1  0
 17  7  1  0
 19  7  2  0
 20 18  2  0
 20 13  1  0
 20  3  2  0
 20  1  1  1
M  END
$$$$

     RDKit          3D

 27 30  0  0  0  0  0  0  0  0999 V2000
   -9.5200   -0.0420  -21.3030 O   0  0  0  0  0  0  0  0  0  0  0  0
   -8.9220   -0.9230  -21.8990 C   0  0  0  0  0  0  0  0  0  0  0  0
   -9.5920   -1.6530  -23.0870 C   0  0  1  0  0  0  0  0  0  0  0  0
  -11.0970   -1.3550  -23.0740 C   0  0  0  0  0  0  0  0  0  0  0  0
  -11.9050   -2.0420  -22.1670 C   0  0  0  0  0  0  0  0  0  0  0  0
  -13.2430   -1.7120  -22.0510 C   0  0  0  0  0  0  0  0  0  0  0  0
  -14.2240   -2.5790  -20.9020 Cl  0  0  0  0  0  0  0  0  0  0  0  0
  -13.8220   -0.7180  -22.8150 C   0  0  0  0  0  0  0  0  0  0  0  0
  -13.0480   -0.0460  -23.7430 C   0  0  0  0  0  0  0  0  0  0  0  0
  -11.7050   -0.3690  -23.8740 C   0  0  0  0  0  0  0  0  0  0  0  0
  -10.7770    0.4950  -25.0860 S   0  0  2  0  0  0  0  0  0  0  0  0
  -11.0510    1.8950  -24.9790 O   0  0  0  0  0  0  0  0  0  0  0  0
  -10.9450   -0.1480  -26.3540 O   0  0  0  0  0  0  0  0  0  0  0  0
   -9.2450    0.2380  -24.5930 N   0  0  0  0  0  0  0  0  0  0  0  0
   -8.9260   -1.1830  -24.4020 C   0  0  0  0  0  0  0  0  0  0  0  0
   -9.3800   -3.1710  -22.9220 C   0  0  0  0  0  0  0  0  0  0  0  0
   -7.6810   -1.3460  -21.5490 N   0  0  0  0  0  0  0  0  0  0  0  0
   -6.9230   -0.9350  -20.4250 C   0  0  0  0  0  0  0  0  0  0  0  0
   -5.7400   -0.1560  -20.6310 C   0  0  0  0  0  0  0  0  0  0  0  0
   -5.2170    0.1620  -21.9130 C   0  0  0  0  0  0  0  0  0  0  0  0
   -4.0780    0.9060  -22.0430 C   0  0  0  0  0  0  0  0  0  0  0  0
   -3.4120    1.3850  -20.9180 C   0  0  0  0  0  0  0  0  0  0  0  0
   -3.8800    1.1120  -19.6640 C   0  0  0  0  0  0  0  0  0  0  0  0
   -5.0450    0.3270  -19.4850 C   0  0  0  0  0  0  0  0  0  0  0  0
   -5.5650   -0.0100  -18.2090 C   0  0  0  0  0  0  0  0  0  0  0  0
   -6.6580   -0.7390  -18.0170 N   0  0  0  0  0  0  0  0  0  0  0  0
   -7.3060   -1.1850  -19.1060 C   0  0  0  0  0  0  0  0  0  0  0  0
  2  1  2  0
  3  2  1  0
  4  3  1  0
  5  4  2  0
  6  5  1  0
  7  6  1  0
  8  6  2  0
  9  8  1  0
 10  9  2  0
 10  4  1  0
 11 10  1  0
 12 11  2  0
 13 11  2  0
 11 14  1  1
 15 14  1  0
 15  3  1  0
  3 16  1  1
 17  2  1  0
 18 17  1  0
 19 18  1  0
 20 19  2  0
 21 20  1  0
 22 21  2  0
 23 22  1  0
 24 19  1  0
 24 23  2  0
 25 24  1  0
 26 25  2  0
 27 26  1  0
 27 18  2  0
M  END
$$$$

     RDKit          3D

 21 23  0  0  0  0  0  0  0  0999 V2000
   -8.5740   -0.2180  -21.4210 O   0  0  0  0  0  0  0  0  0  0  0  0
   -8.0860   -1.3250  -21.6260 C   0  0  0  0  0  0  0  0  0  0  0  0
   -8.5620   -2.2150  -22.7590 C   0  0  0  0  0  0  0  0  0  0  0  0
  -10.0080   -1.9240  -23.0950 C   0  0  0  0  0  0  0  0  0  0  0  0
  -10.3500   -0.9130  -23.9850 C   0  0  0  0  0  0  0  0  0  0  0  0
  -11.6780   -0.5660  -24.1890 C   0  0  0  0  0  0  0  0  0  0  0  0
  -12.6870   -1.2410  -23.5210 C   0  0  0  0  0  0  0  0  0  0  0  0
  -11.0220   -2.6040  -22.4310 C   0  0  0  0  0  0  0  0  0  0  0  0
  -12.3370   -2.2540  -22.6480 C   0  0  0  0  0  0  0  0  0  0  0  0
  -13.5830   -3.0970  -21.7710 Cl  0  0  0  0  0  0  0  0  0  0  0  0
   -7.1830   -1.8620  -20.8090 N   0  0  0  0  0  0  0  0  0  0  0  0
   -6.3470   -1.2810  -19.9360 C   0  0  0  0  0  0  0  0  0  0  0  0
   -5.2470   -0.4560  -20.3700 C   0  0  0  0  0  0  0  0  0  0  0  0
   -4.6200    0.3270  -19.3590 C   0  0  0  0  0  0  0  0  0  0  0  0
   -5.1820    0.2870  -18.0690 C   0  0  0  0  0  0  0  0  0  0  0  0
   -6.2360   -0.4220  -17.7610 N   0  0  0  0  0  0  0  0  0  0  0  0
   -6.7900   -1.2230  -18.6860 N   0  0  0  0  0  0  0  0  0  0  0  0
   -4.6910   -0.4230  -21.6730 C   0  0  0  0  0  0  0  0  0  0  0  0
   -3.5720    0.3190  -21.9420 C   0  0  0  0  0  0  0  0  0  0  0  0
   -2.9590    1.0630  -20.9490 C   0  0  0  0  0  0  0  0  0  0  0  0
   -3.4600    1.0770  -19.6830 C   0  0  0  0  0  0  0  0  0  0  0  0
  2  1  2  0
  3  2  1  0
  4  3  1  0
  5  4  2  0
  6  5  1  0
  7  6  2  0
  8  4  1  0
  9  8  2  0
  9  7  1  0
 10  9  1  0
 11  2  1  0
 12 11  1  0
 13 12  2  0
 14 13  1  0
 15 14  2  0
 16 15  1  0
 17 16  2  0
 17 12  1  0
 18 13  1  0
 19 18  2  0
 20 19  1  0
 21 20  2  0
 21 14  1  0
M  END
$$$$

     RDKit          3D

 27 29  0  0  0  0  0  0  0  0999 V2000
  -13.8210   -2.5150  -21.7400 Cl  0  0  0  0  0  0  0  0  0  0  0  0
  -12.4910   -1.9570  -22.7190 C   0  0  0  0  0  0  0  0  0  0  0  0
  -12.7350   -1.0750  -23.7500 C   0  0  0  0  0  0  0  0  0  0  0  0
  -11.6680   -0.6470  -24.5230 C   0  0  0  0  0  0  0  0  0  0  0  0
  -10.3800   -1.0700  -24.2300 C   0  0  0  0  0  0  0  0  0  0  0  0
  -11.2150   -2.3990  -22.4250 C   0  0  0  0  0  0  0  0  0  0  0  0
  -10.1370   -1.9300  -23.1680 C   0  0  0  0  0  0  0  0  0  0  0  0
   -8.7250   -2.2710  -22.7550 C   0  0  0  0  0  0  0  0  0  0  0  0
   -8.1480   -1.2520  -21.7910 C   0  0  0  0  0  0  0  0  0  0  0  0
   -8.6810   -0.1590  -21.6060 O   0  0  0  0  0  0  0  0  0  0  0  0
   -7.0340   -1.6630  -21.1460 N   0  0  0  0  0  0  0  0  0  0  0  0
   -6.3760   -1.0500  -20.0620 C   0  0  0  0  0  0  0  0  0  0  0  0
   -6.7830   -1.1820  -18.7330 C   0  0  0  0  0  0  0  0  0  0  0  0
   -6.2130   -0.5660  -17.6890 N   0  0  0  0  0  0  0  0  0  0  0  0
   -5.1880    0.2350  -17.9370 C   0  0  0  0  0  0  0  0  0  0  0  0
   -5.2580   -0.1990  -20.3310 C   0  0  0  0  0  0  0  0  0  0  0  0
   -4.6540    0.4700  -19.2290 C   0  0  0  0  0  0  0  0  0  0  0  0
   -3.5610    1.3340  -19.4660 C   0  0  0  0  0  0  0  0  0  0  0  0
   -3.0810    1.5220  -20.7280 C   0  0  0  0  0  0  0  0  0  0  0  0
   -4.7270    0.0150  -21.6290 C   0  0  0  0  0  0  0  0  0  0  0  0
   -3.6580    0.8610  -21.8050 C   0  0  0  0  0  0  0  0  0  0  0  0
   -3.0510    1.1850  -22.9960 O   0  0  0  0  0  0  0  0  0  0  0  0
   -3.2100    0.2980  -24.1210 C   0  0  0  0  0  0  0  0  0  0  0  0
   -2.2160    0.7080  -25.1920 C   0  0  0  0  0  0  0  0  0  0  0  0
   -2.5910    1.8790  -26.0020 N   0  0  2  0  0  0  0  0  0  0  0  0
   -3.0570    1.4660  -27.3220 C   0  0  0  0  0  0  0  0  0  0  0  0
   -1.4750    2.8170  -26.1380 C   0  0  0  0  0  0  0  0  0  0  0  0
  2  1  1  0
  3  2  2  0
  4  3  1  0
  5  4  2  0
  6  2  1  0
  7  6  2  0
  7  5  1  0
  8  7  1  0
  9  8  1  0
 10  9  2  0
 11  9  1  0
 12 11  1  0
 13 12  2  0
 14 13  1  0
 15 14  2  0
 16 12  1  0
 17 16  2  0
 17 15  1  0
 18 17  1  0
 19 18  2  0
 20 16  1  0
 21 20  2  0
 21 19  1  0
 22 21  1  0
 23 22  1  0
 24 23  1  0
 25 24  1  0
 25 26  1  6
 27 25  1  0
M  CHG  1  25   1
M  END
$$$$

     RDKit          3D

 26 29  0  0  0  0  0  0  0  0999 V2000
   -8.2200   -0.1150  -21.6580 O   0  0  0  0  0  0  0  0  0  0  0  0
   -7.8810   -1.2810  -21.8010 C   0  0  0  0  0  0  0  0  0  0  0  0
   -8.2760   -2.0860  -23.0910 C   0  0  1  0  0  0  0  0  0  0  0  0
   -9.7150   -1.7220  -23.4490 C   0  0  0  0  0  0  0  0  0  0  0  0
  -10.8000   -2.4590  -22.9820 C   0  0  0  0  0  0  0  0  0  0  0  0
  -12.0630   -1.9020  -23.0350 C   0  0  0  0  0  0  0  0  0  0  0  0
  -13.4000   -2.7830  -22.3530 Cl  0  0  0  0  0  0  0  0  0  0  0  0
  -12.2890   -0.6600  -23.5880 C   0  0  0  0  0  0  0  0  0  0  0  0
  -11.2260    0.0510  -24.1140 C   0  0  0  0  0  0  0  0  0  0  0  0
   -9.9350   -0.4720  -24.0430 C   0  0  0  0  0  0  0  0  0  0  0  0
   -8.8470    0.2790  -24.4970 N   0  0  0  0  0  0  0  0  0  0  0  0
   -7.5700   -0.1550  -24.5250 C   0  0  0  0  0  0  0  0  0  0  0  0
   -6.6290    0.6190  -24.7030 O   0  0  0  0  0  0  0  0  0  0  0  0
   -7.3450   -1.6150  -24.2240 C   0  0  0  0  0  0  0  0  0  0  0  0
   -8.1130   -3.4930  -22.9560 O   0  0  0  0  0  0  0  0  0  0  0  0
   -7.2130   -1.9330  -20.8310 N   0  0  0  0  0  0  0  0  0  0  0  0
   -6.2940   -1.4580  -19.8760 C   0  0  0  0  0  0  0  0  0  0  0  0
   -5.3160   -0.4680  -20.2240 C   0  0  0  0  0  0  0  0  0  0  0  0
   -4.7580   -0.3310  -21.5230 C   0  0  0  0  0  0  0  0  0  0  0  0
   -3.7590    0.5700  -21.7690 C   0  0  0  0  0  0  0  0  0  0  0  0
   -3.2710    1.3790  -20.7550 C   0  0  0  0  0  0  0  0  0  0  0  0
   -3.7760    1.2900  -19.4910 C   0  0  0  0  0  0  0  0  0  0  0  0
   -4.8020    0.3620  -19.1880 C   0  0  0  0  0  0  0  0  0  0  0  0
   -5.3000    0.1670  -17.8790 C   0  0  0  0  0  0  0  0  0  0  0  0
   -6.1720   -0.7720  -17.5500 N   0  0  0  0  0  0  0  0  0  0  0  0
   -6.6160   -1.5690  -18.5270 C   0  0  0  0  0  0  0  0  0  0  0  0
  2  1  2  0
  3  2  1  0
  4  3  1  0
  5  4  2  0
  6  5  1  0
  7  6  1  0
  8  6  2  0
  9  8  1  0
 10  9  2  0
 10  4  1  0
 11 10  1  0
 12 11  1  0
 13 12  2  0
 14 12  1  0
 14  3  1  0
  3 15  1  1
 16  2  1  0
 17 16  1  0
 18 17  1  0
 19 18  2  0
 20 19  1  0
 21 20  2  0
 22 21  1  0
 23 22  2  0
 23 18  1  0
 24 23  1  0
 25 24  2  0
 26 25  1  0
 26 17  2  0
M  END
$$$$

     RDKit          3D

 22 25  0  0  0  0  0  0  0  0999 V2000
  -11.5460   -1.5040  -23.4590 C   0  0  0  0  0  0  0  0  0  0  0  0
   -6.0600   -1.9800  -19.2610 C   0  0  0  0  0  0  0  0  0  0  0  0
   -5.4190   -0.7170  -18.7840 C   0  0  0  0  0  0  0  0  0  0  0  0
   -4.4300    0.0630  -19.4000 C   0  0  0  0  0  0  0  0  0  0  0  0
   -4.1970    1.1160  -18.5910 C   0  0  0  0  0  0  0  0  0  0  0  0
   -7.2110   -0.9730  -21.2380 C   0  0  0  0  0  0  0  0  0  0  0  0
  -10.7590   -0.4420  -23.8750 C   0  0  0  0  0  0  0  0  0  0  0  0
  -11.0270   -2.5880  -22.7820 C   0  0  0  0  0  0  0  0  0  0  0  0
   -9.6620   -2.6270  -22.5080 C   0  0  0  0  0  0  0  0  0  0  0  0
   -8.8600   -1.5910  -22.9460 C   0  0  0  0  0  0  0  0  0  0  0  0
   -9.4000   -0.4940  -23.6000 C   0  0  0  0  0  0  0  0  0  0  0  0
   -8.3530    0.5290  -23.9250 C   0  0  0  0  0  0  0  0  0  0  0  0
   -7.0400   -0.2320  -23.7290 C   0  0  0  0  0  0  0  0  0  0  0  0
   -7.3880   -1.3590  -22.7340 C   0  0  1  0  0  0  0  0  0  0  0  0
   -5.8330   -2.7420  -21.6780 C   0  0  0  0  0  0  0  0  0  0  0  0
   -6.4990   -2.5180  -22.8220 N   0  0  0  0  0  0  0  0  0  0  0  0
   -6.3180   -1.8630  -20.6970 N   0  0  0  0  0  0  0  0  0  0  0  0
   -5.7890   -0.1740  -17.6580 N   0  0  0  0  0  0  0  0  0  0  0  0
   -4.9770   -3.5880  -21.4900 O   0  0  0  0  0  0  0  0  0  0  0  0
   -5.0070    1.0070  -17.5230 O   0  0  0  0  0  0  0  0  0  0  0  0
   -7.8230   -0.1030  -20.6460 O   0  0  0  0  0  0  0  0  0  0  0  0
  -13.2570   -1.4710  -23.7910 Cl  0  0  0  0  0  0  0  0  0  0  0  0
  3  2  1  0
  4  3  1  0
  5  4  2  0
  7  1  2  0
  8  1  1  0
  9  8  2  0
 10  9  1  0
 11 10  2  0
 11  7  1  0
 12 11  1  0
 13 12  1  0
 14 13  1  6
 14 10  1  0
 14  6  1  0
 16 14  1  0
 16 15  1  0
 17 15  1  0
 17  6  1  0
 17  2  1  0
 18  3  2  0
 19 15  2  0
 20 18  1  0
 20  5  1  0
 21  6  2  0
 22  1  1  0
M  END
$$$$

     RDKit          3D

 33 36  0  0  0  0  0  0  0  0999 V2000
  -13.8170   -2.7340  -21.4990 Cl  0  0  0  0  0  0  0  0  0  0  0  0
  -12.6540   -1.9200  -22.5110 C   0  0  0  0  0  0  0  0  0  0  0  0
  -11.3240   -2.2900  -22.4350 C   0  0  0  0  0  0  0  0  0  0  0  0
  -13.0730   -0.8970  -23.3300 C   0  0  0  0  0  0  0  0  0  0  0  0
  -12.1390   -0.2320  -24.1020 C   0  0  0  0  0  0  0  0  0  0  0  0
  -10.7850   -0.5590  -24.0370 C   0  0  0  0  0  0  0  0  0  0  0  0
   -9.7910    0.2120  -24.8810 C   0  0  0  0  0  0  0  0  0  0  0  0
   -8.4070    0.0350  -24.4160 N   0  0  2  0  0  0  0  0  0  0  0  0
   -7.4130    0.7380  -25.2210 C   0  0  0  0  0  0  0  0  0  0  0  0
   -6.9610    2.0650  -24.6270 C   0  0  0  0  0  0  0  0  0  0  0  0
   -6.2120    2.8030  -25.2600 O   0  0  0  0  0  0  0  0  0  0  0  0
   -7.3970    2.3680  -23.4090 N   0  0  0  0  0  0  0  0  0  0  0  0
   -6.9220    3.5320  -22.6830 C   0  0  0  0  0  0  0  0  0  0  0  0
  -10.3720   -1.5890  -23.1770 C   0  0  0  0  0  0  0  0  0  0  0  0
   -8.8910   -1.8660  -22.9870 C   0  0  1  0  0  0  0  0  0  0  0  0
   -8.1060   -1.3800  -24.2030 C   0  0  0  0  0  0  0  0  0  0  0  0
   -8.4230   -1.0910  -21.7500 C   0  0  0  0  0  0  0  0  0  0  0  0
   -8.9690   -0.0490  -21.3880 O   0  0  0  0  0  0  0  0  0  0  0  0
   -7.3190   -1.5990  -21.1470 N   0  0  0  0  0  0  0  0  0  0  0  0
   -6.6190   -1.0810  -20.0280 C   0  0  0  0  0  0  0  0  0  0  0  0
   -5.4990   -0.2220  -20.2610 C   0  0  0  0  0  0  0  0  0  0  0  0
   -4.8540    0.3660  -19.1320 C   0  0  0  0  0  0  0  0  0  0  0  0
   -5.3590    0.0530  -17.8480 C   0  0  0  0  0  0  0  0  0  0  0  0
   -6.3940   -0.7500  -17.6300 N   0  0  0  0  0  0  0  0  0  0  0  0
   -6.9920   -1.2940  -18.6990 C   0  0  0  0  0  0  0  0  0  0  0  0
   -5.0230    0.1100  -21.5530 C   0  0  0  0  0  0  0  0  0  0  0  0
   -3.9830    0.9720  -21.7240 C   0  0  0  0  0  0  0  0  0  0  0  0
   -3.3570    1.5320  -20.6170 C   0  0  0  0  0  0  0  0  0  0  0  0
   -3.7700    1.2510  -19.3440 C   0  0  0  0  0  0  0  0  0  0  0  0
   -1.9880    2.6250  -20.8570 S   0  0  2  0  0  0  0  0  0  0  0  0
   -1.0820    2.0080  -21.7840 O   0  0  0  0  0  0  0  0  0  0  0  0
   -1.4830    3.0070  -19.5680 O   0  0  0  0  0  0  0  0  0  0  0  0
   -2.6910    4.0390  -21.6180 C   0  0  0  0  0  0  0  0  0  0  0  0
  2  1  1  0
  3  2  2  0
  4  2  1  0
  5  4  2  0
  6  5  1  0
  7  6  1  0
  8  7  1  0
  8  9  1  6
 10  9  1  0
 11 10  2  0
 12 10  1  0
 13 12  1  0
 14  3  1  0
 14  6  2  0
 15 14  1  0
 16 15  1  0
 16  8  1  0
 15 17  1  1
 18 17  2  0
 19 17  1  0
 20 19  1  0
 21 20  2  0
 22 21  1  0
 23 22  2  0
 24 23  1  0
 25 24  2  0
 25 20  1  0
 26 21  1  0
 27 26  2  0
 28 27  1  0
 29 28  2  0
 29 22  1  0
 30 28  1  0
 31 30  2  0
 32 30  2  0
 30 33  1  6
M  CHG  1   8   1
M  END
$$$$

     RDKit          3D

 24 26  0  0  0  0  0  0  0  0999 V2000
   -5.1660   -3.6640  -20.9630 O   0  0  0  0  0  0  0  0  0  0  0  0
   -5.9280   -2.7040  -20.9140 C   0  0  0  0  0  0  0  0  0  0  0  0
   -5.6810   -1.5390  -19.9990 C   0  0  0  0  0  0  0  0  0  0  0  0
   -4.7220   -0.5430  -20.3240 C   0  0  0  0  0  0  0  0  0  0  0  0
   -4.1070   -0.4130  -21.5990 C   0  0  0  0  0  0  0  0  0  0  0  0
   -3.1820    0.5620  -21.8330 C   0  0  0  0  0  0  0  0  0  0  0  0
   -2.8200    1.4490  -20.8340 C   0  0  0  0  0  0  0  0  0  0  0  0
   -3.3940    1.3790  -19.6000 C   0  0  0  0  0  0  0  0  0  0  0  0
   -4.3650    0.3890  -19.3110 C   0  0  0  0  0  0  0  0  0  0  0  0
   -5.0160    0.2800  -18.0600 C   0  0  0  0  0  0  0  0  0  0  0  0
   -5.9300   -0.6400  -17.7700 N   0  0  0  0  0  0  0  0  0  0  0  0
   -6.2340   -1.5310  -18.7200 C   0  0  0  0  0  0  0  0  0  0  0  0
   -6.9980   -2.5980  -21.7030 N   0  0  0  0  0  0  0  0  0  0  0  0
   -7.2720   -3.5710  -22.7530 C   0  0  0  0  0  0  0  0  0  0  0  0
   -8.7390   -3.6470  -23.0670 C   0  0  0  0  0  0  0  0  0  0  0  0
   -9.2740   -2.3240  -22.8970 O   0  0  0  0  0  0  0  0  0  0  0  0
  -10.6110   -2.1240  -23.1130 C   0  0  0  0  0  0  0  0  0  0  0  0
  -10.9760   -0.8140  -23.4910 C   0  0  0  0  0  0  0  0  0  0  0  0
   -9.9330    0.0550  -23.6680 O   0  0  0  0  0  0  0  0  0  0  0  0
  -10.2400    1.3960  -24.0490 C   0  0  0  0  0  0  0  0  0  0  0  0
  -11.5910   -3.0830  -22.9060 C   0  0  0  0  0  0  0  0  0  0  0  0
  -12.9250   -2.7430  -23.0620 C   0  0  0  0  0  0  0  0  0  0  0  0
  -13.2850   -1.4580  -23.4330 C   0  0  0  0  0  0  0  0  0  0  0  0
  -12.3190   -0.4880  -23.6450 C   0  0  0  0  0  0  0  0  0  0  0  0
  2  1  2  0
  3  2  1  0
  4  3  1  0
  5  4  2  0
  6  5  1  0
  7  6  2  0
  8  7  1  0
  9  8  2  0
  9  4  1  0
 10  9  1  0
 11 10  2  0
 12 11  1  0
 12  3  2  0
 13  2  1  0
 14 13  1  0
 15 14  1  0
 16 15  1  0
 17 16  1  0
 18 17  2  0
 19 18  1  0
 20 19  1  0
 21 17  1  0
 22 21  2  0
 23 22  1  0
 24 23  2  0
 24 18  1  0
M  END
$$$$

     RDKit          3D

 33 37  0  0  0  0  0  0  0  0999 V2000
   -8.6130    5.7540  -23.0260 N   0  0  0  0  0  0  0  0  0  0  0  0
   -7.9130    4.8570  -23.0150 C   0  0  0  0  0  0  0  0  0  0  0  0
   -6.9740    3.7310  -22.9580 C   0  0  1  0  0  0  0  0  0  0  0  0
   -5.6130    3.9380  -23.5870 C   0  0  0  0  0  0  0  0  0  0  0  0
   -5.7400    3.9610  -22.1120 C   0  0  0  0  0  0  0  0  0  0  0  0
   -7.6170    2.3480  -22.9720 C   0  0  0  0  0  0  0  0  0  0  0  0
   -7.7920    1.5780  -24.5700 S   0  0  2  0  0  0  0  0  0  0  0  0
   -6.5350    1.0170  -24.9510 O   0  0  0  0  0  0  0  0  0  0  0  0
   -8.4260    2.5180  -25.4400 O   0  0  0  0  0  0  0  0  0  0  0  0
   -8.8260    0.3380  -24.3650 N   0  0  0  0  0  0  0  0  0  0  0  0
  -10.2290    0.5360  -24.7440 C   0  0  0  0  0  0  0  0  0  0  0  0
   -8.4070   -1.0740  -24.2910 C   0  0  0  0  0  0  0  0  0  0  0  0
   -9.1200   -1.6740  -23.0750 C   0  0  2  0  0  0  0  0  0  0  0  0
  -10.6210   -1.4160  -23.1480 C   0  0  0  0  0  0  0  0  0  0  0  0
  -11.1160   -0.3130  -23.8690 C   0  0  0  0  0  0  0  0  0  0  0  0
  -12.4740   -0.0070  -23.7990 C   0  0  0  0  0  0  0  0  0  0  0  0
  -13.3450   -0.7800  -23.0550 C   0  0  0  0  0  0  0  0  0  0  0  0
  -11.5120   -2.2140  -22.4260 C   0  0  0  0  0  0  0  0  0  0  0  0
  -12.8570   -1.8780  -22.3880 C   0  0  0  0  0  0  0  0  0  0  0  0
  -13.9490   -2.8430  -21.4310 Cl  0  0  0  0  0  0  0  0  0  0  0  0
   -8.5500   -0.9860  -21.8320 C   0  0  0  0  0  0  0  0  0  0  0  0
   -9.1070   -0.0260  -21.3110 O   0  0  0  0  0  0  0  0  0  0  0  0
   -7.3680   -1.4870  -21.3830 N   0  0  0  0  0  0  0  0  0  0  0  0
   -6.6030   -1.0170  -20.2860 C   0  0  0  0  0  0  0  0  0  0  0  0
   -5.4540   -0.1980  -20.5320 C   0  0  0  0  0  0  0  0  0  0  0  0
   -4.9180    0.0430  -21.8270 C   0  0  0  0  0  0  0  0  0  0  0  0
   -3.8090    0.8270  -21.9950 C   0  0  0  0  0  0  0  0  0  0  0  0
   -3.1780    1.4070  -20.9020 C   0  0  0  0  0  0  0  0  0  0  0  0
   -3.6560    1.2090  -19.6370 C   0  0  0  0  0  0  0  0  0  0  0  0
   -4.8010    0.4020  -19.4170 C   0  0  0  0  0  0  0  0  0  0  0  0
   -5.3230    0.1400  -18.1250 C   0  0  0  0  0  0  0  0  0  0  0  0
   -6.3730   -0.6330  -17.8910 N   0  0  0  0  0  0  0  0  0  0  0  0
   -6.9840   -1.1880  -18.9510 C   0  0  0  0  0  0  0  0  0  0  0  0
  2  1  3  0
  3  2  1  6
  4  3  1  0
  5  4  1  0
  5  3  1  0
  6  3  1  0
  7  6  1  1
  8  7  2  0
  9  7  2  0
 10  7  1  0
 11 10  1  0
 12 10  1  0
 13 12  1  0
 14 13  1  0
 15 14  2  0
 15 11  1  0
 16 15  1  0
 17 16  2  0
 18 14  1  0
 19 18  2  0
 19 17  1  0
 20 19  1  0
 13 21  1  1
 22 21  2  0
 23 21  1  0
 24 23  1  0
 25 24  1  0
 26 25  2  0
 27 26  1  0
 28 27  2  0
 29 28  1  0
 30 25  1  0
 30 29  2  0
 31 30  1  0
 32 31  2  0
 33 32  1  0
 33 24  2  0
M  END
$$$$

     RDKit          3D

 31 35  0  0  0  0  0  0  0  0999 V2000
   -8.4770    2.2670  -25.9830 O   0  0  0  0  0  0  0  0  0  0  0  0
   -7.6830    1.3400  -25.2490 S   0  0  1  0  0  0  0  0  0  0  0  0
   -6.6270    0.6230  -25.8750 O   0  0  0  0  0  0  0  0  0  0  0  0
   -7.0670    2.1830  -24.0330 N   0  0  0  0  0  0  0  0  0  0  0  0
   -7.6240    2.5030  -22.6900 C   0  0  0  0  0  0  0  0  0  0  0  0
   -6.5570    3.5980  -22.5630 C   0  0  0  0  0  0  0  0  0  0  0  0
   -5.8420    2.9870  -23.7720 C   0  0  0  0  0  0  0  0  0  0  0  0
   -8.6700    0.2650  -24.5890 N   0  0  0  0  0  0  0  0  0  0  0  0
  -10.0510    0.2620  -25.0840 C   0  0  0  0  0  0  0  0  0  0  0  0
   -8.1540   -1.0820  -24.2840 C   0  0  0  0  0  0  0  0  0  0  0  0
   -8.9190   -1.6650  -23.0910 C   0  0  2  0  0  0  0  0  0  0  0  0
  -10.4210   -1.4930  -23.2650 C   0  0  0  0  0  0  0  0  0  0  0  0
  -10.9360   -0.5450  -24.1690 C   0  0  0  0  0  0  0  0  0  0  0  0
  -12.3140   -0.3380  -24.2320 C   0  0  0  0  0  0  0  0  0  0  0  0
  -13.1810   -1.0480  -23.4250 C   0  0  0  0  0  0  0  0  0  0  0  0
  -11.3080   -2.2350  -22.4790 C   0  0  0  0  0  0  0  0  0  0  0  0
  -12.6700   -1.9940  -22.5670 C   0  0  0  0  0  0  0  0  0  0  0  0
  -13.7630   -2.8760  -21.5340 Cl  0  0  0  0  0  0  0  0  0  0  0  0
   -8.4510   -0.9720  -21.8080 C   0  0  0  0  0  0  0  0  0  0  0  0
   -9.0660   -0.0240  -21.3180 O   0  0  0  0  0  0  0  0  0  0  0  0
   -7.2760   -1.4330  -21.3000 N   0  0  0  0  0  0  0  0  0  0  0  0
   -6.5510   -0.9100  -20.2010 C   0  0  0  0  0  0  0  0  0  0  0  0
   -5.3750   -0.1290  -20.4540 C   0  0  0  0  0  0  0  0  0  0  0  0
   -4.8200    0.0680  -21.7460 C   0  0  0  0  0  0  0  0  0  0  0  0
   -3.6980    0.8300  -21.9210 C   0  0  0  0  0  0  0  0  0  0  0  0
   -3.0760    1.4390  -20.8390 C   0  0  0  0  0  0  0  0  0  0  0  0
   -3.5670    1.2750  -19.5750 C   0  0  0  0  0  0  0  0  0  0  0  0
   -4.7210    0.4810  -19.3450 C   0  0  0  0  0  0  0  0  0  0  0  0
   -5.2630    0.2620  -18.0550 C   0  0  0  0  0  0  0  0  0  0  0  0
   -6.3440   -0.4670  -17.8170 N   0  0  0  0  0  0  0  0  0  0  0  0
   -6.9590   -1.0260  -18.8690 C   0  0  0  0  0  0  0  0  0  0  0  0
  2  1  2  0
  3  2  2  0
  2  4  1  1
  5  4  1  0
  6  5  1  0
  7  6  1  0
  7  4  1  0
  8  2  1  0
  9  8  1  0
 10  8  1  0
 11 10  1  0
 12 11  1  0
 13 12  2  0
 13  9  1  0
 14 13  1  0
 15 14  2  0
 16 12  1  0
 17 16  2  0
 17 15  1  0
 18 17  1  0
 11 19  1  1
 20 19  2  0
 21 19  1  0
 22 21  1  0
 23 22  1  0
 24 23  2  0
 25 24  1  0
 26 25  2  0
 27 26  1  0
 28 27  2  0
 28 23  1  0
 29 28  1  0
 30 29  2  0
 31 30  1  0
 31 22  2  0
M  END
$$$$

     RDKit          3D

 18 19  0  0  0  0  0  0  0  0999 V2000
  -13.6880   -2.9340  -21.8300 Cl  0  0  0  0  0  0  0  0  0  0  0  0
  -12.4160   -2.1370  -22.7120 C   0  0  0  0  0  0  0  0  0  0  0  0
  -12.7420   -1.1720  -23.6450 C   0  0  0  0  0  0  0  0  0  0  0  0
  -11.7190   -0.5380  -24.3360 C   0  0  0  0  0  0  0  0  0  0  0  0
  -10.3950   -0.8520  -24.0730 C   0  0  0  0  0  0  0  0  0  0  0  0
  -11.1080   -2.4790  -22.4420 C   0  0  0  0  0  0  0  0  0  0  0  0
  -10.0890   -1.8100  -23.1110 C   0  0  0  0  0  0  0  0  0  0  0  0
   -8.7810   -1.9830  -22.6110 N   0  0  0  0  0  0  0  0  0  0  0  0
   -8.2760   -1.2300  -21.5890 C   0  0  0  0  0  0  0  0  0  0  0  0
   -8.8510   -0.2440  -21.1470 O   0  0  0  0  0  0  0  0  0  0  0  0
   -7.0790   -1.6780  -21.1100 N   0  0  0  0  0  0  0  0  0  0  0  0
   -6.4110   -1.0200  -20.0540 C   0  0  0  0  0  0  0  0  0  0  0  0
   -5.2560   -0.2600  -20.3200 C   0  0  0  0  0  0  0  0  0  0  0  0
   -4.7530   -0.0350  -21.7230 C   0  0  0  0  0  0  0  0  0  0  0  0
   -6.8900   -1.0820  -18.7450 C   0  0  0  0  0  0  0  0  0  0  0  0
   -6.3000   -0.4610  -17.7180 N   0  0  0  0  0  0  0  0  0  0  0  0
   -5.1880    0.2420  -17.9790 C   0  0  0  0  0  0  0  0  0  0  0  0
   -4.6400    0.3630  -19.2400 C   0  0  0  0  0  0  0  0  0  0  0  0
  2  1  1  0
  3  2  2  0
  4  3  1  0
  5  4  2  0
  6  2  1  0
  7  6  2  0
  7  5  1  0
  8  7  1  0
  9  8  1  0
 10  9  2  0
 11  9  1  0
 12 11  1  0
 13 12  2  0
 14 13  1  0
 15 12  1  0
 16 15  2  0
 17 16  1  0
 18 17  2  0
 18 13  1  0
M  END
$$$$

     RDKit          3D

 33 36  0  0  0  0  0  0  0  0999 V2000
  -13.7880   -2.7610  -21.5140 Cl  0  0  0  0  0  0  0  0  0  0  0  0
  -12.6350   -1.9980  -22.5740 C   0  0  0  0  0  0  0  0  0  0  0  0
  -11.2910   -2.2930  -22.4370 C   0  0  0  0  0  0  0  0  0  0  0  0
  -13.0810   -1.0830  -23.4990 C   0  0  0  0  0  0  0  0  0  0  0  0
  -12.1620   -0.4530  -24.3160 C   0  0  0  0  0  0  0  0  0  0  0  0
  -10.7980   -0.7020  -24.1930 C   0  0  0  0  0  0  0  0  0  0  0  0
   -9.8510    0.0610  -25.0850 C   0  0  0  0  0  0  0  0  0  0  0  0
   -8.4650   -0.0940  -24.6260 N   0  0  0  0  0  0  0  0  0  0  0  0
   -7.3990    0.8330  -25.3740 S   0  0  2  0  0  0  0  0  0  0  0  0
   -7.7570    0.8510  -26.7490 O   0  0  0  0  0  0  0  0  0  0  0  0
   -6.0970    0.4250  -24.9720 O   0  0  0  0  0  0  0  0  0  0  0  0
   -7.7070    2.2760  -24.7490 N   0  0  0  0  0  0  0  0  0  0  0  0
   -7.6780    2.6480  -23.3170 C   0  0  0  0  0  0  0  0  0  0  0  0
   -6.3340    3.2240  -22.8830 C   0  0  0  0  0  0  0  0  0  0  0  0
   -6.4250    4.6550  -22.5700 C   0  0  0  0  0  0  0  0  0  0  0  0
   -6.4630    5.7720  -22.3470 N   0  0  0  0  0  0  0  0  0  0  0  0
   -8.1880    3.3420  -25.6340 C   0  0  0  0  0  0  0  0  0  0  0  0
  -10.3520   -1.6310  -23.2340 C   0  0  0  0  0  0  0  0  0  0  0  0
   -8.8650   -1.8960  -23.0640 C   0  0  1  0  0  0  0  0  0  0  0  0
   -8.0960   -1.4890  -24.3210 C   0  0  0  0  0  0  0  0  0  0  0  0
   -8.3420   -1.0970  -21.8650 C   0  0  0  0  0  0  0  0  0  0  0  0
   -8.9160   -0.0880  -21.4490 O   0  0  0  0  0  0  0  0  0  0  0  0
   -7.1980   -1.5820  -21.3120 N   0  0  0  0  0  0  0  0  0  0  0  0
   -6.4880   -1.0740  -20.1910 C   0  0  0  0  0  0  0  0  0  0  0  0
   -5.3460   -0.2420  -20.4150 C   0  0  0  0  0  0  0  0  0  0  0  0
   -4.7650   -0.0260  -21.6900 C   0  0  0  0  0  0  0  0  0  0  0  0
   -3.6960    0.8090  -21.8420 C   0  0  0  0  0  0  0  0  0  0  0  0
   -3.1560    1.4780  -20.7510 C   0  0  0  0  0  0  0  0  0  0  0  0
   -3.6640    1.2890  -19.4960 C   0  0  0  0  0  0  0  0  0  0  0  0
   -4.7600    0.4130  -19.2900 C   0  0  0  0  0  0  0  0  0  0  0  0
   -5.3100    0.1530  -18.0120 C   0  0  0  0  0  0  0  0  0  0  0  0
   -6.3450   -0.6470  -17.7990 N   0  0  0  0  0  0  0  0  0  0  0  0
   -6.9040   -1.2330  -18.8670 C   0  0  0  0  0  0  0  0  0  0  0  0
  2  1  1  0
  3  2  2  0
  4  2  1  0
  5  4  2  0
  6  5  1  0
  7  6  1  0
  8  7  1  0
  9  8  1  0
 10  9  2  0
 11  9  2  0
  9 12  1  1
 13 12  1  0
 14 13  1  0
 15 14  1  0
 16 15  3  0
 17 12  1  0
 18  3  1  0
 18  6  2  0
 19 18  1  0
 20 19  1  0
 20  8  1  0
 19 21  1  1
 22 21  2  0
 23 21  1  0
 24 23  1  0
 25 24  1  0
 26 25  2  0
 27 26  1  0
 28 27  2  0
 29 28  1  0
 30 29  2  0
 30 25  1  0
 31 30  1  0
 32 31  2  0
 33 32  1  0
 33 24  2  0
M  END
$$$$

     RDKit          3D

 26 29  0  0  0  0  0  0  0  0999 V2000
   -9.3930    0.2940  -21.4170 O   0  0  0  0  0  0  0  0  0  0  0  0
   -8.9030   -0.6970  -21.9650 C   0  0  0  0  0  0  0  0  0  0  0  0
   -7.7580   -1.2890  -21.5410 N   0  0  0  0  0  0  0  0  0  0  0  0
   -6.9830   -0.9480  -20.4020 C   0  0  0  0  0  0  0  0  0  0  0  0
   -5.8900   -0.0560  -20.4710 C   0  0  0  0  0  0  0  0  0  0  0  0
   -5.5150    0.5870  -21.7850 C   0  0  0  0  0  0  0  0  0  0  0  0
   -4.0900    1.1100  -21.7970 C   0  0  0  0  0  0  0  0  0  0  0  0
   -3.7930    1.9420  -20.5580 C   0  0  0  0  0  0  0  0  0  0  0  0
   -3.9680    1.1240  -19.2950 C   0  0  0  0  0  0  0  0  0  0  0  0
   -5.2050    0.2580  -19.2840 C   0  0  0  0  0  0  0  0  0  0  0  0
   -5.6610   -0.2980  -18.1080 C   0  0  0  0  0  0  0  0  0  0  0  0
   -6.6980   -1.1330  -18.0180 N   0  0  0  0  0  0  0  0  0  0  0  0
   -7.3340   -1.4510  -19.1510 C   0  0  0  0  0  0  0  0  0  0  0  0
   -9.5580   -1.3710  -23.1740 C   0  0  1  0  0  0  0  0  0  0  0  0
  -11.0730   -1.2450  -23.1840 C   0  0  0  0  0  0  0  0  0  0  0  0
  -11.8460   -2.0970  -22.3960 C   0  0  0  0  0  0  0  0  0  0  0  0
  -13.1890   -1.8370  -22.2000 C   0  0  0  0  0  0  0  0  0  0  0  0
  -14.0470   -2.7260  -20.9760 Cl  0  0  0  0  0  0  0  0  0  0  0  0
   -8.9640   -0.8700  -24.4980 C   0  0  0  0  0  0  0  0  0  0  0  0
   -9.3310    0.5490  -24.6470 N   0  0  0  0  0  0  0  0  0  0  0  0
  -10.8960    0.7570  -25.0570 S   0  0  1  0  0  0  0  0  0  0  0  0
  -11.2230    2.1400  -24.8720 O   0  0  0  0  0  0  0  0  0  0  0  0
  -11.0990    0.1680  -26.3490 O   0  0  0  0  0  0  0  0  0  0  0  0
  -11.7350   -0.2080  -23.8550 C   0  0  0  0  0  0  0  0  0  0  0  0
  -13.0930    0.0260  -23.6770 C   0  0  0  0  0  0  0  0  0  0  0  0
  -13.8230   -0.7930  -22.8360 C   0  0  0  0  0  0  0  0  0  0  0  0
  2  1  2  0
  3  2  1  0
  4  3  1  0
  5  4  1  0
  6  5  1  0
  7  6  1  0
  8  7  1  0
  9  8  1  0
 10  5  2  0
 10  9  1  0
 11 10  1  0
 12 11  2  0
 13 12  1  0
 13  4  2  0
 14  2  1  1
 15 14  1  0
 16 15  2  0
 17 16  1  0
 18 17  1  0
 19 14  1  0
 20 19  1  0
 21 20  1  1
 22 21  2  0
 23 21  2  0
 24 15  1  0
 24 21  1  0
 25 24  2  0
 26 25  1  0
 26 17  2  0
M  END
$$$$

     RDKit          3D

 25 27  0  0  0  0  0  0  0  0999 V2000
   -8.0550   -4.3050  -23.0230 C   0  0  0  0  0  0  0  0  0  0  0  0
   -6.6020   -3.8420  -22.9690 C   0  0  0  0  0  0  0  0  0  0  0  0
   -5.4190   -1.5820  -20.1280 C   0  0  0  0  0  0  0  0  0  0  0  0
  -10.2150   -3.4250  -23.8240 C   0  0  0  0  0  0  0  0  0  0  0  0
  -10.3790   -4.3170  -24.9170 C   0  0  0  0  0  0  0  0  0  0  0  0
  -11.6230   -4.5460  -25.4630 C   0  0  0  0  0  0  0  0  0  0  0  0
  -12.6120   -3.0430  -23.9000 C   0  0  0  0  0  0  0  0  0  0  0  0
  -11.3800   -2.7870  -23.3250 C   0  0  0  0  0  0  0  0  0  0  0  0
   -4.2620    0.5470  -19.9720 C   0  0  0  0  0  0  0  0  0  0  0  0
   -5.8240   -0.1830  -18.1880 C   0  0  0  0  0  0  0  0  0  0  0  0
   -5.5510   -2.7750  -21.0390 C   0  0  0  0  0  0  0  0  0  0  0  0
   -6.0590   -1.3980  -18.9480 C   0  0  0  0  0  0  0  0  0  0  0  0
  -12.7890   -3.9240  -24.9810 C   0  0  0  0  0  0  0  0  0  0  0  0
  -14.0760   -4.2120  -25.6080 C   0  0  0  0  0  0  0  0  0  0  0  0
   -7.3240   -1.5880  -22.3730 C   0  0  0  0  0  0  0  0  0  0  0  0
   -8.7770   -2.0430  -22.3560 C   0  0  0  0  0  0  0  0  0  0  0  0
   -4.5510   -0.6350  -20.6150 N   0  0  0  0  0  0  0  0  0  0  0  0
   -4.9250    0.7100  -18.7720 N   0  0  0  0  0  0  0  0  0  0  0  0
   -6.4390   -2.7100  -22.0500 N   0  0  0  0  0  0  0  0  0  0  0  0
   -8.9740   -3.1840  -23.2680 N   0  0  0  0  0  0  0  0  0  0  0  0
   -3.4820    1.3720  -20.4320 O   0  0  0  0  0  0  0  0  0  0  0  0
   -6.3500    0.0880  -17.1040 O   0  0  0  0  0  0  0  0  0  0  0  0
  -14.2040   -4.9090  -26.6180 O   0  0  0  0  0  0  0  0  0  0  0  0
   -4.8210   -3.7530  -20.8080 O   0  0  0  0  0  0  0  0  0  0  0  0
  -14.0080   -2.2060  -23.2130 Cl  0  0  0  0  0  0  0  0  0  0  0  0
  2  1  1  0
  5  4  2  0
  6  5  1  0
  8  7  2  0
  8  4  1  0
 11  3  1  0
 12 10  1  0
 12  3  2  0
 13  7  1  0
 13  6  2  0
 14 13  1  0
 16 15  1  0
 17  9  1  0
 17  3  1  0
 18 10  1  0
 18  9  1  0
 19 15  1  0
 19  2  1  0
 19 11  1  0
 20 16  1  0
 20  4  1  0
 20  1  1  0
 21  9  2  0
 22 10  2  0
 23 14  2  0
 24 11  2  0
 25  7  1  0
M  END
$$$$

     RDKit          3D

 31 34  0  0  0  0  0  0  0  0999 V2000
   -5.9330    1.7640  -24.7820 O   0  0  0  0  0  0  0  0  0  0  0  0
   -4.6140    1.2070  -24.8390 S   0  0  1  0  0  0  0  0  0  0  0  0
   -4.4640   -0.2030  -25.0050 O   0  0  0  0  0  0  0  0  0  0  0  0
   -3.7330    2.0120  -26.1260 C   0  0  0  0  0  0  0  0  0  0  0  0
   -3.8630    1.6040  -23.4490 N   0  0  0  0  0  0  0  0  0  0  0  0
   -4.2320    1.1700  -22.1330 C   0  0  0  0  0  0  0  0  0  0  0  0
   -3.4820    1.6130  -21.0430 C   0  0  0  0  0  0  0  0  0  0  0  0
   -3.8150    1.2560  -19.7710 C   0  0  0  0  0  0  0  0  0  0  0  0
   -5.3200    0.3420  -21.9250 C   0  0  0  0  0  0  0  0  0  0  0  0
   -5.6970   -0.0600  -20.6190 C   0  0  0  0  0  0  0  0  0  0  0  0
   -4.9270    0.4170  -19.5160 C   0  0  0  0  0  0  0  0  0  0  0  0
   -5.3330    0.0410  -18.2120 C   0  0  0  0  0  0  0  0  0  0  0  0
   -6.3860   -0.7210  -17.9500 N   0  0  0  0  0  0  0  0  0  0  0  0
   -7.1020   -1.1670  -18.9930 C   0  0  0  0  0  0  0  0  0  0  0  0
   -6.8300   -0.8920  -20.3330 C   0  0  0  0  0  0  0  0  0  0  0  0
   -7.6230   -1.3610  -21.4050 N   0  0  0  0  0  0  0  0  0  0  0  0
   -8.7740   -0.8330  -21.8880 C   0  0  0  0  0  0  0  0  0  0  0  0
   -9.3140    0.1660  -21.4310 O   0  0  0  0  0  0  0  0  0  0  0  0
   -9.3800   -1.5700  -23.1310 C   0  0  1  0  0  0  0  0  0  0  0  0
   -9.0680   -2.9360  -22.8580 O   0  0  0  0  0  0  0  0  0  0  0  0
   -9.4530   -3.9000  -23.8480 C   0  0  0  0  0  0  0  0  0  0  0  0
  -10.8800   -1.3830  -23.1960 C   0  0  0  0  0  0  0  0  0  0  0  0
  -11.7120   -2.0270  -22.2840 C   0  0  0  0  0  0  0  0  0  0  0  0
  -13.0590   -1.7330  -22.2700 C   0  0  0  0  0  0  0  0  0  0  0  0
  -14.0870   -2.5860  -21.1490 Cl  0  0  0  0  0  0  0  0  0  0  0  0
  -13.6140   -0.7940  -23.1130 C   0  0  0  0  0  0  0  0  0  0  0  0
  -12.8010   -0.1470  -24.0320 C   0  0  0  0  0  0  0  0  0  0  0  0
  -11.4470   -0.4540  -24.0770 C   0  0  0  0  0  0  0  0  0  0  0  0
  -10.7310    0.1620  -25.0740 O   0  0  0  0  0  0  0  0  0  0  0  0
   -9.3140    0.2980  -24.8050 C   0  0  0  0  0  0  0  0  0  0  0  0
   -8.6860   -1.0150  -24.3830 C   0  0  0  0  0  0  0  0  0  0  0  0
  2  1  2  0
  3  2  2  0
  2  4  1  6
  5  2  1  0
  6  5  1  0
  7  6  2  0
  8  7  1  0
  9  6  1  0
 10  9  2  0
 11 10  1  0
 11  8  2  0
 12 11  1  0
 13 12  2  0
 14 13  1  0
 15 14  2  0
 15 10  1  0
 16 15  1  0
 17 16  1  0
 18 17  2  0
 19 17  1  0
 19 20  1  1
 21 20  1  0
 22 19  1  0
 23 22  2  0
 24 23  1  0
 25 24  1  0
 26 24  2  0
 27 26  1  0
 28 27  2  0
 28 22  1  0
 29 28  1  0
 30 29  1  0
 31 30  1  0
 31 19  1  0
M  END
$$$$

     RDKit          3D

 18 19  0  0  0  0  0  0  0  0999 V2000
  -10.2600   -0.4280  -23.2930 C   0  0  0  0  0  0  0  0  0  0  0  0
   -6.1500   -0.4450  -17.6940 N   0  0  0  0  0  0  0  0  0  0  0  0
  -12.3500   -2.1770  -22.9280 C   0  0  0  0  0  0  0  0  0  0  0  0
   -4.9950    0.0100  -20.2030 C   0  0  0  0  0  0  0  0  0  0  0  0
  -12.5940   -0.9570  -23.5250 C   0  0  0  0  0  0  0  0  0  0  0  0
   -4.3810    0.3200  -21.5440 C   0  0  0  0  0  0  0  0  0  0  0  0
  -10.0490   -1.6350  -22.6350 C   0  0  0  0  0  0  0  0  0  0  0  0
   -4.5810    0.7140  -19.0770 C   0  0  0  0  0  0  0  0  0  0  0  0
   -8.7860   -1.9510  -22.0980 N   0  0  0  0  0  0  0  0  0  0  0  0
   -6.5540   -1.7190  -21.2230 C   0  0  0  0  0  0  0  0  0  0  0  0
   -8.1540    0.0690  -21.2680 O   0  0  0  0  0  0  0  0  0  0  0  0
   -6.0070   -0.9500  -20.0440 C   0  0  0  0  0  0  0  0  0  0  0  0
   -7.9080   -1.1070  -21.5210 C   0  0  0  0  0  0  0  0  0  0  0  0
   -6.5280   -1.1340  -18.7750 C   0  0  0  0  0  0  0  0  0  0  0  0
  -11.5340   -0.0880  -23.7210 C   0  0  0  0  0  0  0  0  0  0  0  0
  -11.1010   -2.5250  -22.4590 C   0  0  0  0  0  0  0  0  0  0  0  0
   -5.1880    0.4690  -17.8610 C   0  0  0  0  0  0  0  0  0  0  0  0
  -13.6130   -3.3700  -22.9090 Cl  0  0  0  0  0  0  0  0  0  0  0  0
  5  3  1  0
  6  4  1  0
  7  1  2  0
  8  4  1  0
  9  7  1  0
 12 10  1  0
 12  4  2  0
 13  9  1  0
 13 11  2  0
 13 10  1  0
 14 12  1  0
 14  2  2  0
 15  5  2  0
 15  1  1  0
 16  3  2  0
 16  7  1  0
 17  2  1  0
 17  8  2  0
 18  3  1  0
M  END
$$$$

     RDKit          3D

 24 26  0  0  0  0  0  0  0  0999 V2000
   -9.0170   -0.1300  -21.3810 O   0  0  0  0  0  0  0  0  0  0  0  0
   -8.6640   -1.2950  -21.5340 C   0  0  0  0  0  0  0  0  0  0  0  0
   -7.5230   -1.8060  -21.0160 N   0  0  0  0  0  0  0  0  0  0  0  0
   -6.6630   -1.1370  -20.1090 C   0  0  0  0  0  0  0  0  0  0  0  0
   -6.9260   -1.1200  -18.7380 C   0  0  0  0  0  0  0  0  0  0  0  0
   -6.1740   -0.4670  -17.8480 N   0  0  0  0  0  0  0  0  0  0  0  0
   -5.1060    0.1900  -18.3100 C   0  0  0  0  0  0  0  0  0  0  0  0
   -4.7570    0.2370  -19.6460 C   0  0  0  0  0  0  0  0  0  0  0  0
   -5.5410   -0.4270  -20.5840 C   0  0  0  0  0  0  0  0  0  0  0  0
   -5.2110   -0.3390  -22.0520 C   0  0  0  0  0  0  0  0  0  0  0  0
   -9.5080   -2.2930  -22.3160 C   0  0  0  0  0  0  0  0  0  0  0  0
   -9.8010   -1.8780  -23.7670 C   0  0  2  0  0  0  0  0  0  0  0  0
  -10.7110   -2.8010  -24.5400 C   0  0  0  0  0  0  0  0  0  0  0  0
  -11.9900   -2.4760  -24.9110 C   0  0  0  0  0  0  0  0  0  0  0  0
  -12.7650   -3.7550  -25.7520 S   0  0  0  0  0  0  0  0  0  0  0  0
  -11.4000   -4.7610  -25.6450 C   0  0  0  0  0  0  0  0  0  0  0  0
  -10.3780   -4.1210  -24.9620 C   0  0  0  0  0  0  0  0  0  0  0  0
   -8.5530   -1.4930  -24.4780 N   0  0  1  0  0  0  0  0  0  0  0  0
   -7.6080   -2.5910  -24.7440 C   0  0  0  0  0  0  0  0  0  0  0  0
   -6.2380   -2.0580  -25.1750 C   0  0  0  0  0  0  0  0  0  0  0  0
   -6.3590   -1.1310  -26.3720 C   0  0  2  0  0  0  0  0  0  0  0  0
   -5.0950   -0.5100  -26.6450 O   0  0  0  0  0  0  0  0  0  0  0  0
   -7.4230   -0.0690  -26.1590 C   0  0  0  0  0  0  0  0  0  0  0  0
   -8.7460   -0.6860  -25.6940 C   0  0  0  0  0  0  0  0  0  0  0  0
  2  1  2  0
  3  2  1  0
  4  3  1  0
  5  4  2  0
  6  5  1  0
  7  6  2  0
  8  7  1  0
  9  4  1  0
  9  8  2  0
 10  9  1  0
 11  2  1  0
 12 11  1  1
 13 12  1  0
 14 13  2  0
 15 14  1  0
 16 15  1  0
 17 16  2  0
 17 13  1  0
 18 12  1  0
 18 19  1  6
 20 19  1  0
 21 20  1  0
 21 22  1  1
 23 21  1  0
 24 23  1  0
 24 18  1  0
M  CHG  1  18   1
M  END
$$$$

     RDKit          3D

 21 22  0  0  0  0  0  0  0  0999 V2000
  -13.5990   -3.1700  -21.7340 Cl  0  0  0  0  0  0  0  0  0  0  0  0
  -12.5240   -1.9900  -22.4160 C   0  0  0  0  0  0  0  0  0  0  0  0
  -13.0400   -0.8060  -22.9010 C   0  0  0  0  0  0  0  0  0  0  0  0
  -12.1700    0.1190  -23.4550 C   0  0  0  0  0  0  0  0  0  0  0  0
  -10.8110   -0.1530  -23.5220 C   0  0  0  0  0  0  0  0  0  0  0  0
  -11.1760   -2.2760  -22.4760 C   0  0  0  0  0  0  0  0  0  0  0  0
  -10.3010   -1.3520  -23.0340 C   0  0  0  0  0  0  0  0  0  0  0  0
   -8.8100   -1.6560  -23.0550 C   0  0  1  0  0  0  0  0  0  0  0  0
   -8.1550   -1.5660  -24.4760 C   0  0  1  0  0  0  0  0  0  0  0  0
   -8.5220   -0.2930  -25.2150 C   0  0  0  0  0  0  0  0  0  0  0  0
   -6.6400   -1.7350  -24.4330 C   0  0  0  0  0  0  0  0  0  0  0  0
   -8.1100   -0.8130  -21.9880 C   0  0  0  0  0  0  0  0  0  0  0  0
   -8.4690    0.3300  -21.7310 O   0  0  0  0  0  0  0  0  0  0  0  0
   -7.1480   -1.4550  -21.2910 N   0  0  0  0  0  0  0  0  0  0  0  0
   -6.4570   -0.8910  -20.1910 C   0  0  0  0  0  0  0  0  0  0  0  0
   -5.2970   -0.1170  -20.4080 C   0  0  0  0  0  0  0  0  0  0  0  0
   -4.7030    0.0690  -21.7810 C   0  0  0  0  0  0  0  0  0  0  0  0
   -4.7150    0.4850  -19.2970 C   0  0  0  0  0  0  0  0  0  0  0  0
   -5.2780    0.3050  -18.0500 C   0  0  0  0  0  0  0  0  0  0  0  0
   -6.3700   -0.4320  -17.8300 N   0  0  0  0  0  0  0  0  0  0  0  0
   -6.9410   -1.0200  -18.8880 C   0  0  0  0  0  0  0  0  0  0  0  0
  2  1  1  0
  3  2  2  0
  4  3  1  0
  5  4  2  0
  6  2  1  0
  7  6  2  0
  7  5  1  0
  8  7  1  0
  9  8  1  0
  9 10  1  1
 11  9  1  0
  8 12  1  1
 13 12  2  0
 14 12  1  0
 15 14  1  0
 16 15  2  0
 17 16  1  0
 18 16  1  0
 19 18  2  0
 20 19  1  0
 21 20  2  0
 21 15  1  0
M  END
$$$$

     RDKit          3D

 21 23  0  0  0  0  0  0  0  0999 V2000
   -8.5570   -0.3120  -21.2750 O   0  0  0  0  0  0  0  0  0  0  0  0
   -7.9920   -1.3750  -21.5350 C   0  0  0  0  0  0  0  0  0  0  0  0
   -8.4370   -2.2650  -22.6800 C   0  0  0  0  0  0  0  0  0  0  0  0
   -9.8790   -2.0150  -23.0510 C   0  0  0  0  0  0  0  0  0  0  0  0
  -10.2230   -1.0670  -24.0110 C   0  0  0  0  0  0  0  0  0  0  0  0
  -11.5510   -0.7180  -24.2200 C   0  0  0  0  0  0  0  0  0  0  0  0
  -12.5550   -1.3210  -23.4730 C   0  0  0  0  0  0  0  0  0  0  0  0
  -10.8890   -2.6470  -22.3400 C   0  0  0  0  0  0  0  0  0  0  0  0
  -12.2010   -2.2820  -22.5430 C   0  0  0  0  0  0  0  0  0  0  0  0
  -13.4410   -3.0590  -21.5960 Cl  0  0  0  0  0  0  0  0  0  0  0  0
   -6.8850   -1.8000  -20.8990 N   0  0  0  0  0  0  0  0  0  0  0  0
   -6.1920   -1.1260  -19.8760 C   0  0  0  0  0  0  0  0  0  0  0  0
   -5.0930   -0.2790  -20.2180 C   0  0  0  0  0  0  0  0  0  0  0  0
   -4.5880   -0.1270  -21.5390 C   0  0  0  0  0  0  0  0  0  0  0  0
   -3.5040    0.6710  -21.7900 C   0  0  0  0  0  0  0  0  0  0  0  0
   -2.8860    1.3710  -20.7620 C   0  0  0  0  0  0  0  0  0  0  0  0
   -3.3550    1.2810  -19.4800 C   0  0  0  0  0  0  0  0  0  0  0  0
   -4.4670    0.4520  -19.1760 C   0  0  0  0  0  0  0  0  0  0  0  0
   -4.9990    0.3160  -17.8710 C   0  0  0  0  0  0  0  0  0  0  0  0
   -6.0300   -0.4660  -17.5610 N   0  0  0  0  0  0  0  0  0  0  0  0
   -6.5960   -1.1680  -18.5490 C   0  0  0  0  0  0  0  0  0  0  0  0
  2  1  2  0
  3  2  1  0
  4  3  1  0
  5  4  2  0
  6  5  1  0
  7  6  2  0
  8  4  1  0
  9  7  1  0
  9  8  2  0
 10  9  1  0
 11  2  1  0
 12 11  1  0
 13 12  1  0
 14 13  2  0
 15 14  1  0
 16 15  2  0
 17 16  1  0
 18 17  2  0
 18 13  1  0
 19 18  1  0
 20 19  2  0
 21 20  1  0
 21 12  2  0
M  END
$$$$

     RDKit          3D

 14 15  0  0  0  0  0  0  0  0999 V2000
   -8.8560   -6.6490  -26.5160 C   0  0  0  0  0  0  0  0  0  0  0  0
   -8.6680   -5.2560  -25.8980 C   0  0  0  0  0  0  0  0  0  0  0  0
   -8.6160   -3.2600  -24.4320 C   0  0  0  0  0  0  0  0  0  0  0  0
   -8.7330   -2.2420  -23.2800 C   0  0  0  0  0  0  0  0  0  0  0  0
  -10.2240   -0.9280  -24.1410 C   0  0  0  0  0  0  0  0  0  0  0  0
  -11.5770   -0.0600  -23.7530 C   0  0  0  0  0  0  0  0  0  0  0  0
  -12.5890   -0.8360  -23.2890 C   0  0  0  0  0  0  0  0  0  0  0  0
  -12.2420   -2.0850  -22.4840 C   0  0  0  0  0  0  0  0  0  0  0  0
  -10.9920   -2.7080  -22.7450 C   0  0  0  0  0  0  0  0  0  0  0  0
  -13.2170   -2.8280  -21.9390 F   0  0  0  0  0  0  0  0  0  0  0  0
   -8.1220   -4.1730  -26.5560 N   0  0  0  0  0  0  0  0  0  0  0  0
   -8.0840   -2.9810  -25.6790 N   0  0  0  0  0  0  0  0  0  0  0  0
   -9.8740   -1.7040  -23.1890 N   0  0  1  0  0  0  0  0  0  0  0  0
   -9.0930   -4.8310  -24.3680 S   0  0  0  0  0  0  0  0  0  0  0  0
  2  1  1  0
  4  3  1  0
  6  5  1  0
  7  6  1  0
  8  7  2  0
  9  8  1  0
 10  8  1  0
 11  2  2  0
 12 11  1  0
 12  3  2  0
 13  9  1  0
 13  5  1  0
 13  4  1  6
 14  3  1  0
 14  2  1  0
M  CHG  1  13   1
M  END
$$$$

     RDKit          3D

 26 30  0  0  0  0  0  0  0  0999 V2000
   -9.3240    0.3880  -21.4490 O   0  0  0  0  0  0  0  0  0  0  0  0
   -8.8440   -0.6190  -21.9320 C   0  0  0  0  0  0  0  0  0  0  0  0
   -9.3190   -1.3270  -23.2050 C   0  0  2  0  0  0  0  0  0  0  0  0
   -8.6620   -0.5970  -24.4060 C   0  0  0  0  0  0  0  0  0  0  0  0
   -9.6020   -0.4710  -25.5900 C   0  0  0  0  0  0  0  0  0  0  0  0
  -10.8510    0.1380  -25.2230 O   0  0  0  0  0  0  0  0  0  0  0  0
  -10.8540   -1.3140  -23.2740 C   0  0  0  0  0  0  0  0  0  0  0  0
  -11.5160   -0.5370  -24.2310 C   0  0  0  0  0  0  0  0  0  0  0  0
  -12.8960   -0.3960  -24.2280 C   0  0  0  0  0  0  0  0  0  0  0  0
  -13.6380   -1.0470  -23.2590 C   0  0  0  0  0  0  0  0  0  0  0  0
  -11.6210   -2.0050  -22.3390 C   0  0  0  0  0  0  0  0  0  0  0  0
  -12.9960   -1.8510  -22.3420 C   0  0  0  0  0  0  0  0  0  0  0  0
  -13.9400   -2.6950  -21.1460 Cl  0  0  0  0  0  0  0  0  0  0  0  0
   -7.7540   -1.2860  -21.4510 N   0  0  0  0  0  0  0  0  0  0  0  0
   -7.5170   -2.5690  -22.1360 C   0  0  0  0  0  0  0  0  0  0  0  0
   -8.7580   -2.7500  -23.0020 C   0  0  0  0  0  0  0  0  0  0  0  0
   -6.9260   -0.8430  -20.3660 C   0  0  0  0  0  0  0  0  0  0  0  0
   -5.7680   -0.0240  -20.5690 C   0  0  0  0  0  0  0  0  0  0  0  0
   -5.2840    0.3680  -21.8480 C   0  0  0  0  0  0  0  0  0  0  0  0
   -4.1780    1.1650  -21.9680 C   0  0  0  0  0  0  0  0  0  0  0  0
   -3.5080    1.6240  -20.8380 C   0  0  0  0  0  0  0  0  0  0  0  0
   -3.9370    1.2800  -19.5880 C   0  0  0  0  0  0  0  0  0  0  0  0
   -5.0730    0.4490  -19.4170 C   0  0  0  0  0  0  0  0  0  0  0  0
   -5.5740    0.0750  -18.1420 C   0  0  0  0  0  0  0  0  0  0  0  0
   -6.6430   -0.6890  -17.9600 N   0  0  0  0  0  0  0  0  0  0  0  0
   -7.2840   -1.1280  -19.0520 C   0  0  0  0  0  0  0  0  0  0  0  0
  2  1  2  0
  3  2  1  0
  3  4  1  6
  5  4  1  0
  6  5  1  0
  7  3  1  0
  8  7  2  0
  8  6  1  0
  9  8  1  0
 10  9  2  0
 11  7  1  0
 12 11  2  0
 12 10  1  0
 13 12  1  0
 14  2  1  0
 15 14  1  0
 16 15  1  0
 16  3  1  0
 17 14  1  0
 18 17  1  0
 19 18  2  0
 20 19  1  0
 21 20  2  0
 22 21  1  0
 23 18  1  0
 23 22  2  0
 24 23  1  0
 25 24  2  0
 26 25  1  0
 26 17  2  0
M  END
$$$$

     RDKit          3D

 17 18  0  0  0  0  0  0  0  0999 V2000
  -13.1910   -2.9500  -22.3740 Cl  0  0  0  0  0  0  0  0  0  0  0  0
  -11.9190   -1.8400  -22.7590 C   0  0  0  0  0  0  0  0  0  0  0  0
  -12.2280   -0.6620  -23.4040 C   0  0  0  0  0  0  0  0  0  0  0  0
  -11.2150    0.2530  -23.6440 C   0  0  0  0  0  0  0  0  0  0  0  0
   -9.9210   -0.0120  -23.2280 C   0  0  0  0  0  0  0  0  0  0  0  0
  -10.6350   -2.1410  -22.3560 C   0  0  0  0  0  0  0  0  0  0  0  0
   -9.6330   -1.2070  -22.5760 C   0  0  0  0  0  0  0  0  0  0  0  0
   -8.3410   -1.5070  -22.1140 N   0  0  0  0  0  0  0  0  0  0  0  0
   -7.5180   -0.6480  -21.4960 C   0  0  0  0  0  0  0  0  0  0  0  0
   -7.8180    0.5150  -21.2360 O   0  0  0  0  0  0  0  0  0  0  0  0
   -6.1680   -1.2090  -21.1200 C   0  0  0  0  0  0  0  0  0  0  0  0
   -5.8630   -0.7940  -19.7030 C   0  0  0  0  0  0  0  0  0  0  0  0
   -4.9750    0.1800  -19.2830 C   0  0  0  0  0  0  0  0  0  0  0  0
   -4.1530    1.1060  -20.1210 C   0  0  0  0  0  0  0  0  0  0  0  0
   -6.4550   -1.2780  -18.5570 C   0  0  0  0  0  0  0  0  0  0  0  0
   -5.9140   -0.6170  -17.5330 N   0  0  0  0  0  0  0  0  0  0  0  0
   -4.9880    0.2830  -17.9490 N   0  0  0  0  0  0  0  0  0  0  0  0
  2  1  1  0
  3  2  2  0
  4  3  1  0
  5  4  2  0
  6  2  1  0
  7  6  2  0
  7  5  1  0
  8  7  1  0
  9  8  1  0
 10  9  2  0
 11  9  1  0
 12 11  1  0
 13 12  2  0
 14 13  1  0
 15 12  1  0
 16 15  2  0
 17 16  1  0
 17 13  1  0
M  END
$$$$

     RDKit          3D

 22 24  0  0  0  0  0  0  0  0999 V2000
   -8.7580    0.0830  -21.4830 O   0  0  0  0  0  0  0  0  0  0  0  0
   -8.5050   -1.0320  -21.9200 C   0  0  0  0  0  0  0  0  0  0  0  0
   -7.5710   -1.9680  -21.1580 C   0  0  0  0  0  0  0  0  0  0  0  0
   -6.8960   -1.2780  -20.0810 N   0  0  0  0  0  0  0  0  0  0  0  0
   -5.7470   -0.5440  -20.1090 C   0  0  0  0  0  0  0  0  0  0  0  0
   -4.9240   -0.0890  -21.1330 C   0  0  0  0  0  0  0  0  0  0  0  0
   -3.8830    0.7640  -20.7890 C   0  0  0  0  0  0  0  0  0  0  0  0
   -3.6650    1.1290  -19.4610 C   0  0  0  0  0  0  0  0  0  0  0  0
   -4.4820    0.6560  -18.4450 C   0  0  0  0  0  0  0  0  0  0  0  0
   -5.5400   -0.1850  -18.7820 C   0  0  0  0  0  0  0  0  0  0  0  0
   -6.5610   -0.7070  -18.0220 N   0  0  0  0  0  0  0  0  0  0  0  0
   -7.3680   -1.3550  -18.8110 N   0  0  0  0  0  0  0  0  0  0  0  0
   -9.0150   -1.4720  -23.0910 N   0  0  0  0  0  0  0  0  0  0  0  0
   -8.5140   -2.6210  -23.8430 C   0  0  0  0  0  0  0  0  0  0  0  0
  -10.1880   -0.8190  -23.6630 C   0  0  0  0  0  0  0  0  0  0  0  0
  -11.3750   -1.7510  -23.6910 C   0  0  0  0  0  0  0  0  0  0  0  0
  -11.8060   -2.3070  -24.8950 C   0  0  0  0  0  0  0  0  0  0  0  0
  -12.8130   -3.2540  -24.8890 C   0  0  0  0  0  0  0  0  0  0  0  0
  -13.2860   -3.9940  -26.4020 Cl  0  0  0  0  0  0  0  0  0  0  0  0
  -13.4320   -3.6480  -23.7170 C   0  0  0  0  0  0  0  0  0  0  0  0
  -13.0190   -3.0770  -22.5190 C   0  0  0  0  0  0  0  0  0  0  0  0
  -11.9980   -2.1380  -22.5100 C   0  0  0  0  0  0  0  0  0  0  0  0
  2  1  2  0
  3  2  1  0
  4  3  1  0
  5  4  1  0
  6  5  2  0
  7  6  1  0
  8  7  2  0
  9  8  1  0
 10  5  1  0
 10  9  2  0
 11 10  1  0
 12 11  2  0
 12  4  1  0
 13  2  1  0
 14 13  1  0
 15 13  1  0
 16 15  1  0
 17 16  2  0
 18 17  1  0
 19 18  1  0
 20 18  2  0
 21 20  1  0
 22 21  2  0
 22 16  1  0
M  END
$$$$

     RDKit          3D

 28 31  0  0  0  0  0  0  0  0999 V2000
  -13.8780   -2.7150  -21.1150 Cl  0  0  0  0  0  0  0  0  0  0  0  0
  -13.0010   -1.7430  -22.2640 C   0  0  0  0  0  0  0  0  0  0  0  0
  -13.7000   -0.8960  -23.1000 C   0  0  0  0  0  0  0  0  0  0  0  0
  -13.0020   -0.0750  -23.9690 C   0  0  0  0  0  0  0  0  0  0  0  0
  -11.6160   -0.1110  -23.9790 C   0  0  0  0  0  0  0  0  0  0  0  0
  -10.9960    0.7230  -24.8750 O   0  0  0  0  0  0  0  0  0  0  0  0
   -9.7240    0.2290  -25.3460 C   0  0  0  0  0  0  0  0  0  0  0  0
   -8.7670    0.0070  -24.2020 C   0  0  0  0  0  0  0  0  0  0  0  0
  -11.6210   -1.7980  -22.2770 C   0  0  0  0  0  0  0  0  0  0  0  0
  -10.9010   -0.9630  -23.1300 C   0  0  0  0  0  0  0  0  0  0  0  0
   -9.3830   -0.9520  -23.1590 C   0  0  2  0  0  0  0  0  0  0  0  0
   -8.8450   -0.6320  -21.7650 C   0  0  0  0  0  0  0  0  0  0  0  0
   -9.1950    0.3580  -21.1580 O   0  0  0  0  0  0  0  0  0  0  0  0
   -7.8870   -1.4960  -21.1950 N   0  0  0  0  0  0  0  0  0  0  0  0
   -7.8050   -2.8770  -21.4810 C   0  0  0  0  0  0  0  0  0  0  0  0
   -8.7050   -3.4410  -22.0940 O   0  0  0  0  0  0  0  0  0  0  0  0
   -6.6640   -3.6650  -20.8650 C   0  0  0  0  0  0  0  0  0  0  0  0
   -7.0510   -5.0920  -20.5350 C   0  0  0  0  0  0  0  0  0  0  0  0
   -7.0560   -0.9530  -20.1400 C   0  0  0  0  0  0  0  0  0  0  0  0
   -7.4030   -1.0810  -18.7980 C   0  0  0  0  0  0  0  0  0  0  0  0
   -6.6880   -0.5740  -17.7840 N   0  0  0  0  0  0  0  0  0  0  0  0
   -5.5890    0.1050  -18.0870 C   0  0  0  0  0  0  0  0  0  0  0  0
   -5.1270    0.3370  -19.4090 C   0  0  0  0  0  0  0  0  0  0  0  0
   -5.8810   -0.2180  -20.4810 C   0  0  0  0  0  0  0  0  0  0  0  0
   -3.9700    1.1010  -19.7010 C   0  0  0  0  0  0  0  0  0  0  0  0
   -3.5750    1.2980  -20.9960 C   0  0  0  0  0  0  0  0  0  0  0  0
   -4.3020    0.7560  -22.0470 C   0  0  0  0  0  0  0  0  0  0  0  0
   -5.4260    0.0150  -21.8080 C   0  0  0  0  0  0  0  0  0  0  0  0
  2  1  1  0
  3  2  2  0
  4  3  1  0
  5  4  2  0
  6  5  1  0
  7  6  1  0
  8  7  1  0
  9  2  1  0
 10  9  2  0
 10  5  1  0
 11 10  1  0
 11  8  1  0
 11 12  1  1
 13 12  2  0
 14 12  1  0
 15 14  1  0
 16 15  2  0
 17 15  1  0
 18 17  1  0
 19 14  1  0
 20 19  2  0
 21 20  1  0
 22 21  2  0
 23 22  1  0
 24 19  1  0
 24 23  2  0
 25 23  1  0
 26 25  2  0
 27 26  1  0
 28 24  1  0
 28 27  2  0
M  END
$$$$

     RDKit          3D

 11 11  0  0  0  0  0  0  0  0999 V2000
   -9.6910   -1.8620  -22.8430 C   0  0  0  0  0  0  0  0  0  0  0  0
   -8.8360   -1.2020  -21.7630 C   0  0  0  0  0  0  0  0  0  0  0  0
   -6.7650   -1.1820  -20.3200 C   0  0  0  0  0  0  0  0  0  0  0  0
   -7.1660   -1.2400  -18.9910 C   0  0  0  0  0  0  0  0  0  0  0  0
   -5.3300   -0.0560  -18.3040 C   0  0  0  0  0  0  0  0  0  0  0  0
   -4.8510    0.0600  -19.6020 C   0  0  0  0  0  0  0  0  0  0  0  0
   -5.5830   -0.5190  -20.6380 C   0  0  0  0  0  0  0  0  0  0  0  0
   -5.1120   -0.4220  -22.0870 C   0  0  0  0  0  0  0  0  0  0  0  0
   -7.5800   -1.8050  -21.3520 N   0  0  0  0  0  0  0  0  0  0  0  0
   -6.4490   -0.6880  -18.0310 N   0  0  0  0  0  0  0  0  0  0  0  0
   -9.2010   -0.1920  -21.2690 O   0  0  0  0  0  0  0  0  0  0  0  0
  2  1  1  0
  4  3  2  0
  6  5  1  0
  7  3  1  0
  7  6  2  0
  8  7  1  0
  9  3  1  0
  9  2  1  0
 10  4  1  0
 10  5  2  0
 11  2  2  0
M  END
$$$$

     RDKit          3D

  5  4  0  0  0  0  0  0  0  0999 V2000
   -9.6200   -6.9570  -25.3430 N   0  0  0  0  0  0  0  0  0  0  0  0
   -8.2780   -4.6500  -23.6090 C   0  0  0  0  0  0  0  0  0  0  0  0
   -7.6180   -5.8790  -24.2350 C   0  0  0  0  0  0  0  0  0  0  0  0
   -8.4710   -6.3720  -25.4050 C   0  0  0  0  0  0  0  0  0  0  0  0
   -7.9360   -6.1620  -26.6670 N   0  0  0  0  0  0  0  0  0  0  0  0
  3  2  1  0
  4  3  1  0
  4  1  1  0
  5  4  2  0
M  CHG  1   5   1
M  END
$$$$

     RDKit          3D

 34 39  0  0  0  0  0  0  0  0999 V2000
  -10.6050    1.9060  -24.8090 O   0  0  0  0  0  0  0  0  0  0  0  0
  -10.1930    0.8140  -24.4530 C   0  0  0  0  0  0  0  0  0  0  0  0
   -8.9000    0.4390  -24.6730 N   0  0  0  0  0  0  0  0  0  0  0  0
   -7.9310    1.3350  -25.3660 C   0  0  1  0  0  0  0  0  0  0  0  0
   -7.1250    0.7250  -26.4820 C   0  0  0  0  0  0  0  0  0  0  0  0
   -8.2400    1.6620  -26.8040 C   0  0  0  0  0  0  0  0  0  0  0  0
   -7.2430    2.4200  -24.5780 C   0  0  0  0  0  0  0  0  0  0  0  0
   -6.3730    3.0740  -25.1370 O   0  0  0  0  0  0  0  0  0  0  0  0
   -7.6000    2.6060  -23.3110 N   0  0  0  0  0  0  0  0  0  0  0  0
   -6.9310    3.5880  -22.4760 C   0  0  0  0  0  0  0  0  0  0  0  0
  -11.0750   -0.1580  -23.7770 C   0  0  0  0  0  0  0  0  0  0  0  0
  -12.4560    0.0400  -23.8200 C   0  0  0  0  0  0  0  0  0  0  0  0
  -13.3110   -0.8630  -23.2120 C   0  0  0  0  0  0  0  0  0  0  0  0
  -12.7810   -1.9640  -22.5690 C   0  0  0  0  0  0  0  0  0  0  0  0
  -13.8510   -3.0580  -21.7370 Cl  0  0  0  0  0  0  0  0  0  0  0  0
  -11.4200   -2.2000  -22.5270 C   0  0  0  0  0  0  0  0  0  0  0  0
  -10.5550   -1.2830  -23.1200 C   0  0  0  0  0  0  0  0  0  0  0  0
   -9.0430   -1.4230  -23.0000 C   0  0  1  0  0  0  0  0  0  0  0  0
   -8.3980   -0.8870  -24.3050 C   0  0  0  0  0  0  0  0  0  0  0  0
   -8.4980   -0.5910  -21.8360 C   0  0  0  0  0  0  0  0  0  0  0  0
   -8.8910    0.5090  -21.4930 O   0  0  0  0  0  0  0  0  0  0  0  0
   -7.4630   -1.2750  -21.2710 N   0  0  0  0  0  0  0  0  0  0  0  0
   -7.2370   -2.5860  -21.9030 C   0  0  0  0  0  0  0  0  0  0  0  0
   -8.5450   -2.8450  -22.6520 C   0  0  0  0  0  0  0  0  0  0  0  0
   -6.6440   -0.7890  -20.2000 C   0  0  0  0  0  0  0  0  0  0  0  0
   -5.5190    0.0360  -20.5000 C   0  0  0  0  0  0  0  0  0  0  0  0
   -5.0920    0.3600  -21.8160 C   0  0  0  0  0  0  0  0  0  0  0  0
   -4.0150    1.1770  -22.0270 C   0  0  0  0  0  0  0  0  0  0  0  0
   -3.3120    1.7160  -20.9540 C   0  0  0  0  0  0  0  0  0  0  0  0
   -3.6860    1.4350  -19.6710 C   0  0  0  0  0  0  0  0  0  0  0  0
   -4.7890    0.5850  -19.4070 C   0  0  0  0  0  0  0  0  0  0  0  0
   -5.2220    0.2600  -18.0900 C   0  0  0  0  0  0  0  0  0  0  0  0
   -6.2680   -0.5070  -17.8170 N   0  0  0  0  0  0  0  0  0  0  0  0
   -6.9480   -1.0170  -18.8590 C   0  0  0  0  0  0  0  0  0  0  0  0
  2  1  2  0
  3  2  1  0
  4  3  1  1
  5  4  1  0
  6  5  1  0
  6  4  1  0
  7  4  1  0
  8  7  2  0
  9  7  1  0
 10  9  1  0
 11  2  1  0
 12 11  2  0
 13 12  1  0
 14 13  2  0
 15 14  1  0
 16 14  1  0
 17 16  2  0
 17 11  1  0
 18 17  1  0
 18 19  1  6
 19  3  1  0
 20 18  1  0
 21 20  2  0
 22 20  1  0
 23 22  1  0
 24 23  1  0
 24 18  1  0
 25 22  1  0
 26 25  1  0
 27 26  2  0
 28 27  1  0
 29 28  2  0
 30 29  1  0
 31 26  1  0
 31 30  2  0
 32 31  1  0
 33 32  2  0
 34 33  1  0
 34 25  2  0
M  END
$$$$

     RDKit          3D

 29 31  0  0  0  0  0  0  0  0999 V2000
   -7.4610    1.1130  -33.8010 O   0  0  0  0  0  0  0  0  0  0  0  0
   -7.6800    0.6910  -32.6750 C   0  0  0  0  0  0  0  0  0  0  0  0
   -8.7010   -0.2720  -32.4680 N   0  0  0  0  0  0  0  0  0  0  0  0
   -9.4200   -0.7480  -33.6480 C   0  0  0  0  0  0  0  0  0  0  0  0
   -8.9750   -0.8040  -31.2450 C   0  0  0  0  0  0  0  0  0  0  0  0
   -6.9080    1.0800  -31.4830 C   0  0  0  0  0  0  0  0  0  0  0  0
   -7.1630    0.4860  -30.2320 C   0  0  0  0  0  0  0  0  0  0  0  0
   -6.3950    0.8520  -29.1250 C   0  0  0  0  0  0  0  0  0  0  0  0
   -5.3990    1.8030  -29.2580 C   0  0  0  0  0  0  0  0  0  0  0  0
   -5.1640    2.4030  -30.4810 C   0  0  0  0  0  0  0  0  0  0  0  0
   -5.9080    2.0460  -31.5930 C   0  0  0  0  0  0  0  0  0  0  0  0
   -8.2490   -0.5040  -30.1470 C   0  0  0  0  0  0  0  0  0  0  0  0
   -8.5410   -1.1480  -28.9550 N   0  0  0  0  0  0  0  0  0  0  0  0
   -7.7670   -2.2020  -28.4650 C   0  0  0  0  0  0  0  0  0  0  0  0
   -6.9090   -2.7380  -29.1550 O   0  0  0  0  0  0  0  0  0  0  0  0
   -8.0600   -2.6470  -27.2090 N   0  0  0  0  0  0  0  0  0  0  0  0
   -7.2790   -3.7100  -26.6060 C   0  0  0  0  0  0  0  0  0  0  0  0
   -7.9980   -5.0120  -26.6550 C   0  0  0  0  0  0  0  0  0  0  0  0
   -7.8750   -5.7350  -27.8020 O   0  0  0  0  0  0  0  0  0  0  0  0
   -8.6200   -6.8730  -27.6180 C   0  0  0  0  0  0  0  0  0  0  0  0
   -9.1890   -6.8700  -26.4180 C   0  0  0  0  0  0  0  0  0  0  0  0
   -8.7870   -5.6610  -25.7870 C   0  0  0  0  0  0  0  0  0  0  0  0
   -9.1750   -2.1140  -26.4160 C   0  0  0  0  0  0  0  0  0  0  0  0
   -8.7490   -1.1520  -25.3160 C   0  0  0  0  0  0  0  0  0  0  0  0
   -9.9310   -0.6370  -24.5310 C   0  0  0  0  0  0  0  0  0  0  0  0
  -10.6420   -1.7500  -23.9850 O   0  0  0  0  0  0  0  0  0  0  0  0
  -11.7620   -1.4860  -23.1470 C   0  0  1  0  0  0  0  0  0  0  0  0
  -12.9100   -0.8580  -23.8720 C   0  0  0  0  0  0  0  0  0  0  0  0
  -12.1530   -2.7500  -22.4370 C   0  0  0  0  0  0  0  0  0  0  0  0
  2  1  2  0
  3  2  1  0
  4  3  1  0
  5  3  1  0
  6  2  1  0
  7  6  2  0
  8  7  1  0
  9  8  2  0
 10  9  1  0
 11  6  1  0
 11 10  2  0
 12  7  1  0
 12  5  2  0
 13 12  1  0
 14 13  1  0
 15 14  2  0
 16 14  1  0
 17 16  1  0
 18 17  1  0
 19 18  1  0
 20 19  1  0
 21 20  2  0
 22 21  1  0
 22 18  2  0
 23 16  1  0
 24 23  1  0
 25 24  1  0
 26 25  1  0
 27 26  1  0
 27 28  1  6
 29 27  1  0
M  END
$$$$

     RDKit          3D

 23 25  0  0  0  0  0  0  0  0999 V2000
   -8.5970    0.3550  -21.6010 O   0  0  0  0  0  0  0  0  0  0  0  0
   -8.2370   -0.8190  -21.6490 C   0  0  0  0  0  0  0  0  0  0  0  0
   -8.7190   -1.7550  -22.7400 C   0  0  0  0  0  0  0  0  0  0  0  0
  -10.2020   -1.6100  -22.9950 C   0  0  0  0  0  0  0  0  0  0  0  0
  -10.6820   -0.6650  -23.8930 C   0  0  0  0  0  0  0  0  0  0  0  0
  -12.0430   -0.4380  -24.0280 C   0  0  0  0  0  0  0  0  0  0  0  0
  -12.9480   -1.1660  -23.2730 C   0  0  0  0  0  0  0  0  0  0  0  0
  -11.1130   -2.3630  -22.2620 C   0  0  0  0  0  0  0  0  0  0  0  0
  -12.4660   -2.1350  -22.4160 C   0  0  0  0  0  0  0  0  0  0  0  0
  -13.5940   -3.1290  -21.5350 Cl  0  0  0  0  0  0  0  0  0  0  0  0
   -7.4740   -1.4000  -20.7040 N   0  0  0  0  0  0  0  0  0  0  0  0
   -6.4730   -0.9500  -19.8120 C   0  0  0  0  0  0  0  0  0  0  0  0
   -5.5150    0.0250  -20.1560 C   0  0  0  0  0  0  0  0  0  0  0  0
   -4.8750    0.7100  -19.1250 C   0  0  0  0  0  0  0  0  0  0  0  0
   -5.2260    0.4180  -17.8230 C   0  0  0  0  0  0  0  0  0  0  0  0
   -6.1270   -0.5060  -17.4820 N   0  0  0  0  0  0  0  0  0  0  0  0
   -6.7110   -1.1910  -18.4670 C   0  0  0  0  0  0  0  0  0  0  0  0
   -5.0930    0.3320  -21.5500 C   0  0  0  0  0  0  0  0  0  0  0  0
   -4.8630    1.6530  -21.9410 C   0  0  0  0  0  0  0  0  0  0  0  0
   -4.2950    1.9380  -23.1730 C   0  0  0  0  0  0  0  0  0  0  0  0
   -3.9620    0.9130  -24.0390 C   0  0  0  0  0  0  0  0  0  0  0  0
   -4.2020   -0.3980  -23.6750 C   0  0  0  0  0  0  0  0  0  0  0  0
   -4.7690   -0.6890  -22.4440 C   0  0  0  0  0  0  0  0  0  0  0  0
  2  1  2  0
  3  2  1  0
  4  3  1  0
  5  4  2  0
  6  5  1  0
  7  6  2  0
  8  4  1  0
  9  8  2  0
  9  7  1  0
 10  9  1  0
 11  2  1  0
 12 11  1  0
 13 12  1  0
 14 13  2  0
 15 14  1  0
 16 15  2  0
 17 16  1  0
 17 12  2  0
 18 13  1  0
 19 18  2  0
 20 19  1  0
 21 20  2  0
 22 21  1  0
 23 22  2  0
 23 18  1  0
M  END
$$$$

     RDKit          3D

 32 36  0  0  0  0  0  0  0  0999 V2000
  -13.8920   -2.8360  -21.5080 Cl  0  0  0  0  0  0  0  0  0  0  0  0
  -12.7230   -1.9760  -22.4740 C   0  0  0  0  0  0  0  0  0  0  0  0
  -11.3820   -2.2910  -22.3480 C   0  0  0  0  0  0  0  0  0  0  0  0
  -13.1570   -1.0160  -23.3570 C   0  0  0  0  0  0  0  0  0  0  0  0
  -12.2320   -0.3780  -24.1620 C   0  0  0  0  0  0  0  0  0  0  0  0
  -10.8730   -0.6840  -24.0820 C   0  0  0  0  0  0  0  0  0  0  0  0
   -9.9140   -0.0140  -25.0410 C   0  0  0  0  0  0  0  0  0  0  0  0
   -8.5200   -0.1650  -24.6160 N   0  0  0  0  0  0  0  0  0  0  0  0
   -7.5920    0.7990  -24.7330 C   0  0  0  0  0  0  0  0  0  0  0  0
   -6.3890    0.5670  -24.6750 O   0  0  0  0  0  0  0  0  0  0  0  0
   -8.0620    2.1900  -24.9180 C   0  0  0  0  0  0  0  0  0  0  0  0
   -8.7220    2.7950  -25.9900 C   0  0  0  0  0  0  0  0  0  0  0  0
   -8.9890    4.0870  -25.5580 C   0  0  0  0  0  0  0  0  0  0  0  0
   -8.5390    4.3190  -24.3290 N   0  0  0  0  0  0  0  0  0  0  0  0
   -7.9520    3.1450  -23.9530 N   0  0  0  0  0  0  0  0  0  0  0  0
   -7.2630    3.0880  -22.6700 C   0  0  0  0  0  0  0  0  0  0  0  0
  -10.4410   -1.6380  -23.1460 C   0  0  0  0  0  0  0  0  0  0  0  0
   -8.9590   -1.9360  -22.9920 C   0  0  1  0  0  0  0  0  0  0  0  0
   -8.1940   -1.5480  -24.2590 C   0  0  0  0  0  0  0  0  0  0  0  0
   -8.4400   -1.0830  -21.8340 C   0  0  0  0  0  0  0  0  0  0  0  0
   -8.9840   -0.0270  -21.5010 O   0  0  0  0  0  0  0  0  0  0  0  0
   -7.3450   -1.5860  -21.2180 N   0  0  0  0  0  0  0  0  0  0  0  0
   -6.6700   -1.0640  -20.0910 C   0  0  0  0  0  0  0  0  0  0  0  0
   -5.5680   -0.1750  -20.2970 C   0  0  0  0  0  0  0  0  0  0  0  0
   -4.9740    0.0680  -21.5610 C   0  0  0  0  0  0  0  0  0  0  0  0
   -3.8910    0.8940  -21.6850 C   0  0  0  0  0  0  0  0  0  0  0  0
   -3.3600    1.5360  -20.5710 C   0  0  0  0  0  0  0  0  0  0  0  0
   -3.9000    1.3400  -19.3320 C   0  0  0  0  0  0  0  0  0  0  0  0
   -5.0050    0.4670  -19.1580 C   0  0  0  0  0  0  0  0  0  0  0  0
   -5.5510    0.1550  -17.8880 C   0  0  0  0  0  0  0  0  0  0  0  0
   -6.5500   -0.6960  -17.6960 N   0  0  0  0  0  0  0  0  0  0  0  0
   -7.0860   -1.2800  -18.7770 C   0  0  0  0  0  0  0  0  0  0  0  0
  2  1  1  0
  3  2  2  0
  4  2  1  0
  5  4  2  0
  6  5  1  0
  7  6  1  0
  8  7  1  0
  9  8  1  0
 10  9  2  0
 11  9  1  0
 12 11  2  0
 13 12  1  0
 14 13  2  0
 15 14  1  0
 15 11  1  0
 16 15  1  0
 17  3  1  0
 17  6  2  0
 18 17  1  0
 19 18  1  0
 19  8  1  0
 18 20  1  1
 21 20  2  0
 22 20  1  0
 23 22  1  0
 24 23  1  0
 25 24  2  0
 26 25  1  0
 27 26  2  0
 28 27  1  0
 29 24  1  0
 29 28  2  0
 30 29  1  0
 31 30  2  0
 32 31  1  0
 32 23  2  0
M  END
$$$$

     RDKit          3D

 36 40  0  0  0  0  0  0  0  0999 V2000
   -8.6740   -0.0750  -21.4810 O   0  0  0  0  0  0  0  0  0  0  0  0
   -8.1390   -1.1630  -21.7050 C   0  0  0  0  0  0  0  0  0  0  0  0
   -7.0410   -1.6150  -21.0580 N   0  0  0  0  0  0  0  0  0  0  0  0
   -6.3440   -0.9930  -20.0050 C   0  0  0  0  0  0  0  0  0  0  0  0
   -5.2660   -0.1080  -20.3250 C   0  0  0  0  0  0  0  0  0  0  0  0
   -4.7830    0.1070  -21.6410 C   0  0  0  0  0  0  0  0  0  0  0  0
   -3.7590    0.9790  -21.8820 C   0  0  0  0  0  0  0  0  0  0  0  0
   -3.1630    1.6730  -20.8400 C   0  0  0  0  0  0  0  0  0  0  0  0
   -3.5950    1.5050  -19.5550 C   0  0  0  0  0  0  0  0  0  0  0  0
   -4.6530    0.6110  -19.2610 C   0  0  0  0  0  0  0  0  0  0  0  0
   -5.1460    0.3950  -17.9510 C   0  0  0  0  0  0  0  0  0  0  0  0
   -6.1380   -0.4360  -17.6540 N   0  0  0  0  0  0  0  0  0  0  0  0
   -6.7090   -1.1060  -18.6640 C   0  0  0  0  0  0  0  0  0  0  0  0
   -8.7210   -2.1690  -22.7350 C   0  0  1  0  0  0  0  0  0  0  0  0
  -10.1550   -1.8140  -23.1020 C   0  0  0  0  0  0  0  0  0  0  0  0
  -10.4460   -0.8130  -24.0220 C   0  0  0  0  0  0  0  0  0  0  0  0
  -11.7590   -0.5360  -24.3760 C   0  0  0  0  0  0  0  0  0  0  0  0
  -12.8010   -1.2530  -23.8100 C   0  0  0  0  0  0  0  0  0  0  0  0
  -11.2000   -2.5360  -22.5380 C   0  0  0  0  0  0  0  0  0  0  0  0
  -12.5030   -2.2430  -22.8930 C   0  0  0  0  0  0  0  0  0  0  0  0
  -13.7990   -3.1220  -22.1360 Cl  0  0  0  0  0  0  0  0  0  0  0  0
   -7.8790   -2.4030  -23.9010 N   0  0  0  0  0  0  0  0  0  0  0  0
   -7.1270   -1.4870  -24.5270 C   0  0  0  0  0  0  0  0  0  0  0  0
   -7.1450   -0.2830  -24.2690 O   0  0  0  0  0  0  0  0  0  0  0  0
   -6.2290   -2.0230  -25.6350 C   0  0  1  0  0  0  0  0  0  0  0  0
   -6.1820   -3.4670  -25.6090 O   0  0  0  0  0  0  0  0  0  0  0  0
   -6.9710   -4.0670  -26.6720 C   0  0  2  0  0  0  0  0  0  0  0  0
   -7.6590   -2.8810  -27.3500 C   0  0  0  0  0  0  0  0  0  0  0  0
   -6.7470   -1.6870  -27.0180 C   0  0  0  0  0  0  0  0  0  0  0  0
   -7.9670   -5.0930  -26.1100 C   0  0  0  0  0  0  0  0  0  0  0  0
   -8.3860   -4.9870  -24.9690 O   0  0  0  0  0  0  0  0  0  0  0  0
   -8.3880   -6.0770  -26.9240 N   0  0  0  0  0  0  0  0  0  0  0  0
   -7.8240   -6.4470  -28.2290 C   0  0  0  0  0  0  0  0  0  0  0  0
   -8.8840   -7.3420  -28.8300 C   0  0  0  0  0  0  0  0  0  0  0  0
   -9.5420   -7.9870  -27.6380 C   0  0  0  0  0  0  0  0  0  0  0  0
   -9.5310   -6.9260  -26.5620 C   0  0  0  0  0  0  0  0  0  0  0  0
  2  1  2  0
  3  2  1  0
  4  3  1  0
  5  4  1  0
  6  5  2  0
  7  6  1  0
  8  7  2  0
  9  8  1  0
 10  9  2  0
 10  5  1  0
 11 10  1  0
 12 11  2  0
 13 12  1  0
 13  4  2  0
 14  2  1  0
 15 14  1  0
 16 15  2  0
 17 16  1  0
 18 17  2  0
 19 15  1  0
 20 19  2  0
 20 18  1  0
 21 20  1  0
 14 22  1  6
 23 22  1  0
 24 23  2  0
 25 23  1  1
 26 25  1  0
 27 26  1  0
 28 27  1  0
 29 28  1  0
 29 25  1  0
 27 30  1  1
 31 30  2  0
 32 30  1  0
 33 32  1  0
 34 33  1  0
 35 34  1  0
 36 35  1  0
 36 32  1  0
M  END
$$$$

     RDKit          3D

 25 27  0  0  0  0  0  0  0  0999 V2000
  -13.9650    5.7410  -21.9050 O   0  0  0  0  0  0  0  0  0  0  0  0
  -13.4170    4.6880  -22.2150 C   0  0  0  0  0  0  0  0  0  0  0  0
  -13.2150    3.3320  -21.5550 C   0  0  0  0  0  0  0  0  0  0  0  0
  -12.7690    4.3090  -23.3310 N   0  0  0  0  0  0  0  0  0  0  0  0
  -12.3630    3.0100  -22.7900 C   0  0  2  0  0  0  0  0  0  0  0  0
  -12.9510    1.8950  -23.4990 O   0  0  0  0  0  0  0  0  0  0  0  0
  -12.4540    0.6440  -23.1950 C   0  0  0  0  0  0  0  0  0  0  0  0
  -13.2990   -0.3880  -22.8100 C   0  0  0  0  0  0  0  0  0  0  0  0
  -12.7370   -1.6140  -22.5090 C   0  0  0  0  0  0  0  0  0  0  0  0
  -13.7760   -2.9190  -22.0000 Cl  0  0  0  0  0  0  0  0  0  0  0  0
  -11.3760   -1.8300  -22.5850 C   0  0  0  0  0  0  0  0  0  0  0  0
  -11.0850    0.4470  -23.2810 C   0  0  0  0  0  0  0  0  0  0  0  0
  -10.5330   -0.7870  -22.9590 C   0  0  0  0  0  0  0  0  0  0  0  0
   -9.0200   -0.9680  -22.9600 C   0  0  2  0  0  0  0  0  0  0  0  0
   -8.5220   -2.3680  -23.3590 C   0  0  0  0  0  0  0  0  0  0  0  0
   -8.3280   -0.1100  -21.8960 C   0  0  0  0  0  0  0  0  0  0  0  0
   -8.2710    1.1130  -22.0000 O   0  0  0  0  0  0  0  0  0  0  0  0
   -7.8400   -0.7880  -20.8180 N   0  0  0  0  0  0  0  0  0  0  0  0
   -6.6860   -0.6040  -20.0070 C   0  0  0  0  0  0  0  0  0  0  0  0
   -5.5770    0.1530  -20.4500 C   0  0  0  0  0  0  0  0  0  0  0  0
   -5.1910    0.2370  -21.9050 C   0  0  0  0  0  0  0  0  0  0  0  0
   -4.7110    0.6470  -19.4810 C   0  0  0  0  0  0  0  0  0  0  0  0
   -4.9230    0.3350  -18.1540 C   0  0  0  0  0  0  0  0  0  0  0  0
   -5.9160   -0.4510  -17.7290 N   0  0  0  0  0  0  0  0  0  0  0  0
   -6.7710   -0.9110  -18.6500 C   0  0  0  0  0  0  0  0  0  0  0  0
  2  1  2  0
  3  2  1  0
  4  2  1  0
  5  4  1  0
  5  3  1  0
  5  6  1  6
  7  6  1  0
  8  7  2  0
  9  8  1  0
 10  9  1  0
 11  9  2  0
 12  7  1  0
 13 12  2  0
 13 11  1  0
 14 13  1  0
 14 15  1  1
 16 14  1  0
 17 16  2  0
 18 16  1  0
 19 18  1  0
 20 19  2  0
 21 20  1  0
 22 20  1  0
 23 22  2  0
 24 23  1  0
 25 24  2  0
 25 19  1  0
M  END
$$$$

     RDKit          3D

 36 41  0  0  0  0  0  0  0  0999 V2000
   -9.0850    6.1510  -22.7800 N   0  0  0  0  0  0  0  0  0  0  0  0
   -8.3300    5.3000  -22.7610 C   0  0  0  0  0  0  0  0  0  0  0  0
   -7.4020    4.1640  -22.6970 C   0  0  2  0  0  0  0  0  0  0  0  0
   -6.1400    4.3410  -21.8830 C   0  0  0  0  0  0  0  0  0  0  0  0
   -6.0490    4.2960  -23.3600 C   0  0  0  0  0  0  0  0  0  0  0  0
   -8.0950    2.8120  -22.7990 C   0  0  0  0  0  0  0  0  0  0  0  0
   -8.5150    2.2260  -24.4280 S   0  0  1  0  0  0  0  0  0  0  0  0
   -9.2700    3.2400  -25.0910 O   0  0  0  0  0  0  0  0  0  0  0  0
   -7.3260    1.7280  -25.0430 O   0  0  0  0  0  0  0  0  0  0  0  0
   -9.5080    0.9560  -24.1930 N   0  0  0  0  0  0  0  0  0  0  0  0
  -10.9540    1.0800  -24.4190 C   0  0  0  0  0  0  0  0  0  0  0  0
   -9.0290   -0.4300  -24.3100 C   0  0  0  0  0  0  0  0  0  0  0  0
   -9.6030   -1.2500  -23.1240 C   0  0  2  0  0  0  0  0  0  0  0  0
  -11.1160   -1.0230  -22.9670 C   0  0  0  0  0  0  0  0  0  0  0  0
  -11.7290    0.0820  -23.5830 C   0  0  0  0  0  0  0  0  0  0  0  0
  -13.0970    0.2800  -23.4090 C   0  0  0  0  0  0  0  0  0  0  0  0
  -13.8500   -0.5700  -22.6200 C   0  0  0  0  0  0  0  0  0  0  0  0
  -11.8850   -1.8970  -22.1920 C   0  0  0  0  0  0  0  0  0  0  0  0
  -13.2330   -1.6410  -22.0150 C   0  0  0  0  0  0  0  0  0  0  0  0
  -14.1720   -2.6920  -20.9810 Cl  0  0  0  0  0  0  0  0  0  0  0  0
   -8.8720   -0.7340  -21.8880 C   0  0  0  0  0  0  0  0  0  0  0  0
   -9.3250    0.2040  -21.2660 O   0  0  0  0  0  0  0  0  0  0  0  0
   -7.6740   -1.3120  -21.5500 N   0  0  0  0  0  0  0  0  0  0  0  0
   -7.2900   -2.6880  -21.9150 C   0  0  0  0  0  0  0  0  0  0  0  0
   -7.8330   -3.0760  -23.2790 C   0  0  0  0  0  0  0  0  0  0  0  0
   -9.3180   -2.7490  -23.3680 C   0  0  0  0  0  0  0  0  0  0  0  0
   -6.9130   -0.8180  -20.4340 C   0  0  0  0  0  0  0  0  0  0  0  0
   -5.7510   -0.0200  -20.6600 C   0  0  0  0  0  0  0  0  0  0  0  0
   -5.2580    0.3220  -21.9480 C   0  0  0  0  0  0  0  0  0  0  0  0
   -4.1540    1.1120  -22.0930 C   0  0  0  0  0  0  0  0  0  0  0  0
   -3.4920    1.6130  -20.9830 C   0  0  0  0  0  0  0  0  0  0  0  0
   -3.9200    1.3110  -19.7210 C   0  0  0  0  0  0  0  0  0  0  0  0
   -5.0520    0.4830  -19.5220 C   0  0  0  0  0  0  0  0  0  0  0  0
   -5.5380    0.1300  -18.2370 C   0  0  0  0  0  0  0  0  0  0  0  0
   -6.6060   -0.6280  -18.0300 N   0  0  0  0  0  0  0  0  0  0  0  0
   -7.2640   -1.0760  -19.1110 C   0  0  0  0  0  0  0  0  0  0  0  0
  2  1  3  0
  3  2  1  6
  4  3  1  0
  5  4  1  0
  5  3  1  0
  6  3  1  0
  7  6  1  1
  8  7  2  0
  9  7  2  0
 10  7  1  0
 11 10  1  0
 12 10  1  0
 13 12  1  6
 14 13  1  0
 15 14  2  0
 15 11  1  0
 16 15  1  0
 17 16  2  0
 18 14  1  0
 19 18  2  0
 19 17  1  0
 20 19  1  0
 21 13  1  0
 22 21  2  0
 23 21  1  0
 24 23  1  0
 25 24  1  0
 26 25  1  0
 26 13  1  0
 27 23  1  0
 28 27  1  0
 29 28  2  0
 30 29  1  0
 31 30  2  0
 32 31  1  0
 33 28  1  0
 33 32  2  0
 34 33  1  0
 35 34  2  0
 36 35  1  0
 36 27  2  0
M  END
$$$$

     RDKit          3D

 37 40  0  0  0  0  0  0  0  0999 V2000
   -5.1450   -3.0500  -21.4410 O   0  0  0  0  0  0  0  0  0  0  0  0
   -6.2850   -3.2730  -21.8140 C   0  0  0  0  0  0  0  0  0  0  0  0
   -6.5910   -4.6880  -22.2000 C   0  0  0  0  0  0  0  0  0  0  0  0
   -7.6330   -5.0940  -22.9860 O   0  0  0  0  0  0  0  0  0  0  0  0
   -7.4740   -6.4550  -23.1570 C   0  0  0  0  0  0  0  0  0  0  0  0
   -6.3980   -6.8860  -22.5180 C   0  0  0  0  0  0  0  0  0  0  0  0
   -5.8160   -5.7520  -21.8890 C   0  0  0  0  0  0  0  0  0  0  0  0
   -7.2190   -2.3000  -21.9530 N   0  0  0  0  0  0  0  0  0  0  0  0
   -8.5040   -2.5030  -22.5670 C   0  0  0  0  0  0  0  0  0  0  0  0
   -8.6470   -2.3940  -23.9490 C   0  0  0  0  0  0  0  0  0  0  0  0
   -9.8980   -2.4910  -24.5290 C   0  0  0  0  0  0  0  0  0  0  0  0
   -9.6360   -2.7300  -21.7860 C   0  0  0  0  0  0  0  0  0  0  0  0
  -10.8850   -2.8360  -22.3810 C   0  0  0  0  0  0  0  0  0  0  0  0
  -11.0340   -2.7270  -23.7630 C   0  0  0  0  0  0  0  0  0  0  0  0
  -12.3920   -2.9020  -24.4600 C   0  0  2  0  0  0  0  0  0  0  0  0
  -12.3340   -4.1100  -25.4020 C   0  0  0  0  0  0  0  0  0  0  0  0
  -12.7150   -1.6540  -25.2950 C   0  0  0  0  0  0  0  0  0  0  0  0
  -13.5550   -3.1230  -23.4740 C   0  0  0  0  0  0  0  0  0  0  0  0
   -6.8150   -0.9040  -21.6560 C   0  0  2  0  0  0  0  0  0  0  0  0
   -6.1890   -0.7340  -20.2800 C   0  0  0  0  0  0  0  0  0  0  0  0
   -6.8160   -1.1900  -19.1250 C   0  0  0  0  0  0  0  0  0  0  0  0
   -6.4410   -0.8560  -17.8820 N   0  0  0  0  0  0  0  0  0  0  0  0
   -5.3790   -0.0530  -17.7570 C   0  0  0  0  0  0  0  0  0  0  0  0
   -4.6660    0.4340  -18.8370 C   0  0  0  0  0  0  0  0  0  0  0  0
   -5.0800    0.0780  -20.1090 C   0  0  0  0  0  0  0  0  0  0  0  0
   -7.9320    0.1280  -21.8870 C   0  0  0  0  0  0  0  0  0  0  0  0
   -8.8510    0.2490  -21.0880 O   0  0  0  0  0  0  0  0  0  0  0  0
   -7.7930    0.8810  -22.9770 N   0  0  0  0  0  0  0  0  0  0  0  0
   -8.7780    1.8920  -23.3450 C   0  0  0  0  0  0  0  0  0  0  0  0
  -10.1110    1.2590  -23.7460 C   0  0  0  0  0  0  0  0  0  0  0  0
  -11.2420    2.2580  -23.8370 C   0  0  0  0  0  0  0  0  0  0  0  0
  -12.0330    2.5230  -22.7250 C   0  0  0  0  0  0  0  0  0  0  0  0
  -13.0320    3.4610  -22.8280 C   0  0  0  0  0  0  0  0  0  0  0  0
  -13.7560    3.7510  -21.7170 F   0  0  0  0  0  0  0  0  0  0  0  0
  -13.3080    4.1440  -23.9810 C   0  0  0  0  0  0  0  0  0  0  0  0
  -12.5230    3.8750  -25.0910 C   0  0  0  0  0  0  0  0  0  0  0  0
  -11.5000    2.9400  -25.0210 C   0  0  0  0  0  0  0  0  0  0  0  0
  2  1  2  0
  3  2  1  0
  4  3  1  0
  5  4  1  0
  6  5  2  0
  7  6  1  0
  7  3  2  0
  8  2  1  0
  9  8  1  0
 10  9  2  0
 11 10  1  0
 12  9  1  0
 13 12  2  0
 14 13  1  0
 14 11  2  0
 15 14  1  0
 15 16  1  6
 17 15  1  0
 18 15  1  0
 19  8  1  1
 20 19  1  0
 21 20  2  0
 22 21  1  0
 23 22  2  0
 24 23  1  0
 25 20  1  0
 25 24  2  0
 26 19  1  0
 27 26  2  0
 28 26  1  0
 29 28  1  0
 30 29  1  0
 31 30  1  0
 32 31  2  0
 33 32  1  0
 34 33  1  0
 35 33  2  0
 36 35  1  0
 37 36  2  0
 37 31  1  0
M  END
$$$$

     RDKit          3D

 20 22  0  0  0  0  0  0  0  0999 V2000
  -13.4880   -3.9540  -24.0870 Cl  0  0  0  0  0  0  0  0  0  0  0  0
  -12.4630   -2.5930  -23.7330 C   0  0  0  0  0  0  0  0  0  0  0  0
  -12.9590   -1.3190  -23.9090 C   0  0  0  0  0  0  0  0  0  0  0  0
  -12.1110   -0.2400  -23.7360 C   0  0  0  0  0  0  0  0  0  0  0  0
  -10.7910   -0.4360  -23.3710 C   0  0  0  0  0  0  0  0  0  0  0  0
  -11.1660   -2.8220  -23.3140 C   0  0  0  0  0  0  0  0  0  0  0  0
  -10.3230   -1.7280  -23.1270 C   0  0  0  0  0  0  0  0  0  0  0  0
   -9.0370   -1.8940  -22.5360 N   0  0  0  0  0  0  0  0  0  0  0  0
   -8.1640   -3.0370  -22.8430 C   0  0  0  0  0  0  0  0  0  0  0  0
   -6.9230   -2.7770  -22.0140 C   0  0  0  0  0  0  0  0  0  0  0  0
   -8.4730   -1.0250  -21.6270 C   0  0  0  0  0  0  0  0  0  0  0  0
   -8.9610    0.0110  -21.2250 O   0  0  0  0  0  0  0  0  0  0  0  0
   -7.2430   -1.5410  -21.2830 N   0  0  0  0  0  0  0  0  0  0  0  0
   -6.4010   -0.9970  -20.2570 C   0  0  0  0  0  0  0  0  0  0  0  0
   -5.2470   -0.2630  -20.5340 C   0  0  0  0  0  0  0  0  0  0  0  0
   -4.7140   -0.0960  -21.9350 C   0  0  0  0  0  0  0  0  0  0  0  0
   -6.8400   -1.0910  -18.9380 C   0  0  0  0  0  0  0  0  0  0  0  0
   -6.2240   -0.5030  -17.9090 N   0  0  0  0  0  0  0  0  0  0  0  0
   -5.1170    0.1990  -18.1830 C   0  0  0  0  0  0  0  0  0  0  0  0
   -4.6020    0.3410  -19.4580 C   0  0  0  0  0  0  0  0  0  0  0  0
  2  1  1  0
  3  2  2  0
  4  3  1  0
  5  4  2  0
  6  2  1  0
  7  6  2  0
  7  5  1  0
  8  7  1  0
  9  8  1  0
 10  9  2  0
 11  8  1  0
 12 11  2  0
 13 10  1  0
 13 11  1  0
 14 13  1  0
 15 14  2  0
 16 15  1  0
 17 14  1  0
 18 17  2  0
 19 18  1  0
 20 19  2  0
 20 15  1  0
M  END
$$$$

     RDKit          3D

 35 38  0  0  0  0  0  0  0  0999 V2000
  -10.6170    1.7620  -24.7360 O   0  0  0  0  0  0  0  0  0  0  0  0
  -10.2530    0.6670  -24.3510 C   0  0  0  0  0  0  0  0  0  0  0  0
   -8.9410    0.2600  -24.4490 N   0  0  0  0  0  0  0  0  0  0  0  0
   -8.0210    1.0090  -25.2850 C   0  0  0  0  0  0  0  0  0  0  0  0
   -7.2940    2.1680  -24.6260 C   0  0  0  0  0  0  0  0  0  0  0  0
   -6.4610    2.8170  -25.2560 O   0  0  0  0  0  0  0  0  0  0  0  0
   -7.5970    2.4390  -23.3610 N   0  0  0  0  0  0  0  0  0  0  0  0
   -6.9130    3.4680  -22.6000 C   0  0  0  0  0  0  0  0  0  0  0  0
  -11.1700   -0.2410  -23.6430 C   0  0  0  0  0  0  0  0  0  0  0  0
  -12.5300    0.0710  -23.5820 C   0  0  0  0  0  0  0  0  0  0  0  0
  -13.4090   -0.7600  -22.9110 C   0  0  0  0  0  0  0  0  0  0  0  0
  -12.9250   -1.8990  -22.3040 C   0  0  0  0  0  0  0  0  0  0  0  0
  -14.0230   -2.9310  -21.4350 Cl  0  0  0  0  0  0  0  0  0  0  0  0
  -11.5820   -2.2220  -22.3370 C   0  0  0  0  0  0  0  0  0  0  0  0
  -10.6840   -1.3770  -22.9860 C   0  0  0  0  0  0  0  0  0  0  0  0
   -9.1960   -1.6460  -22.9170 C   0  0  1  0  0  0  0  0  0  0  0  0
   -8.5200   -1.1180  -24.1790 C   0  0  0  0  0  0  0  0  0  0  0  0
   -8.5990   -0.8980  -21.7210 C   0  0  0  0  0  0  0  0  0  0  0  0
   -9.0350    0.1870  -21.3480 O   0  0  0  0  0  0  0  0  0  0  0  0
   -7.5210   -1.4910  -21.1690 N   0  0  0  0  0  0  0  0  0  0  0  0
   -6.7030   -0.9820  -20.1420 C   0  0  0  0  0  0  0  0  0  0  0  0
   -5.5420   -0.2330  -20.5090 C   0  0  0  0  0  0  0  0  0  0  0  0
   -4.8210    0.4240  -19.4730 C   0  0  0  0  0  0  0  0  0  0  0  0
   -5.2780    0.2600  -18.1430 C   0  0  0  0  0  0  0  0  0  0  0  0
   -6.3400   -0.4590  -17.8020 N   0  0  0  0  0  0  0  0  0  0  0  0
   -7.0250   -1.0560  -18.7860 C   0  0  0  0  0  0  0  0  0  0  0  0
   -5.0770   -0.1040  -21.8430 C   0  0  0  0  0  0  0  0  0  0  0  0
   -3.9670    0.6550  -22.1390 C   0  0  0  0  0  0  0  0  0  0  0  0
   -3.2870    1.3130  -21.1140 C   0  0  0  0  0  0  0  0  0  0  0  0
   -3.6920    1.2060  -19.8160 C   0  0  0  0  0  0  0  0  0  0  0  0
   -3.5430    0.7240  -23.5060 N   0  0  0  0  0  0  0  0  0  0  0  0
   -2.3020    1.5620  -24.1470 S   0  0  1  0  0  0  0  0  0  0  0  0
   -1.1340    1.3050  -23.3610 O   0  0  0  0  0  0  0  0  0  0  0  0
   -2.2820    1.2240  -25.5370 O   0  0  0  0  0  0  0  0  0  0  0  0
   -2.7140    3.2580  -23.9980 C   0  0  0  0  0  0  0  0  0  0  0  0
  2  1  2  0
  3  2  1  0
  4  3  1  0
  5  4  1  0
  6  5  2  0
  7  5  1  0
  8  7  1  0
  9  2  1  0
 10  9  2  0
 11 10  1  0
 12 11  2  0
 13 12  1  0
 14 12  1  0
 15 14  2  0
 15  9  1  0
 16 15  1  0
 17 16  1  0
 17  3  1  0
 16 18  1  1
 19 18  2  0
 20 18  1  0
 21 20  1  0
 22 21  2  0
 23 22  1  0
 24 23  2  0
 25 24  1  0
 26 25  2  0
 26 21  1  0
 27 22  1  0
 28 27  2  0
 29 28  1  0
 30 29  2  0
 30 23  1  0
 31 28  1  0
 32 31  1  0
 33 32  2  0
 34 32  2  0
 32 35  1  6
M  END
$$$$

     RDKit          3D

 15 16  0  0  0  0  0  0  0  0999 V2000
  -10.3480  -26.7500   -3.3950 C   0  0  0  0  0  0  0  0  0  0  0  0
  -11.4990  -25.9910   -3.5140 C   0  0  0  0  0  0  0  0  0  0  0  0
  -11.8350  -25.0700   -2.5260 C   0  0  0  0  0  0  0  0  0  0  0  0
  -11.0130  -24.9030   -1.4330 C   0  0  0  0  0  0  0  0  0  0  0  0
   -9.8500  -25.6650   -1.3210 C   0  0  0  0  0  0  0  0  0  0  0  0
   -8.9110  -25.5140   -0.0830 C   0  0  0  0  0  0  0  0  0  0  0  0
   -7.5820  -24.0880    1.2320 C   0  0  0  0  0  0  0  0  0  0  0  0
   -6.7980  -22.7680    1.2750 C   0  0  0  0  0  0  0  0  0  0  0  0
   -7.1960  -21.5800    1.8840 C   0  0  0  0  0  0  0  0  0  0  0  0
   -6.1850  -20.6520    1.6790 C   0  0  0  0  0  0  0  0  0  0  0  0
   -5.1610  -21.3070    0.9360 C   0  0  0  0  0  0  0  0  0  0  0  0
   -9.5210  -26.5880   -2.3000 C   0  0  0  0  0  0  0  0  0  0  0  0
  -10.0050  -27.6480   -4.3420 F   0  0  0  0  0  0  0  0  0  0  0  0
   -8.4790  -24.1190    0.1410 N   0  0  0  0  0  0  0  0  0  0  0  0
   -5.5570  -22.5560    0.7240 O   0  0  0  0  0  0  0  0  0  0  0  0
  2  1  2  0
  3  2  1  0
  4  3  2  0
  5  4  1  0
  6  5  1  0
  8  7  1  0
  9  8  2  0
 10  9  1  0
 11 10  2  0
 12  5  2  0
 12  1  1  0
 13  1  1  0
 14  7  1  0
 14  6  1  0
 15  8  1  0
 15 11  1  0
M  CHG  1  14   1
M  END
$$$$

     RDKit          3D

 26 28  0  0  0  0  0  0  0  0999 V2000
  -13.8100   -2.5660  -21.8260 Cl  0  0  0  0  0  0  0  0  0  0  0  0
  -12.4630   -2.0860  -22.8200 C   0  0  0  0  0  0  0  0  0  0  0  0
  -12.6710   -1.2010  -23.8600 C   0  0  0  0  0  0  0  0  0  0  0  0
  -11.5830   -0.8150  -24.6290 C   0  0  0  0  0  0  0  0  0  0  0  0
  -10.3120   -1.2820  -24.3260 C   0  0  0  0  0  0  0  0  0  0  0  0
  -11.2060   -2.5710  -22.5200 C   0  0  0  0  0  0  0  0  0  0  0  0
  -10.1040   -2.1340  -23.2480 C   0  0  0  0  0  0  0  0  0  0  0  0
   -8.7050   -2.4240  -22.7500 C   0  0  0  0  0  0  0  0  0  0  0  0
   -8.2450   -1.3000  -21.8400 C   0  0  0  0  0  0  0  0  0  0  0  0
   -9.0400   -0.4970  -21.3590 O   0  0  0  0  0  0  0  0  0  0  0  0
   -6.9150   -1.2240  -21.6380 N   0  0  0  0  0  0  0  0  0  0  0  0
   -6.2130   -0.9160  -20.4570 C   0  0  0  0  0  0  0  0  0  0  0  0
   -6.6820   -1.1400  -19.1620 C   0  0  0  0  0  0  0  0  0  0  0  0
   -6.1540   -0.6260  -18.0420 N   0  0  0  0  0  0  0  0  0  0  0  0
   -5.1020    0.1650  -18.1730 C   0  0  0  0  0  0  0  0  0  0  0  0
   -5.0840   -0.0520  -20.5950 C   0  0  0  0  0  0  0  0  0  0  0  0
   -4.5190    0.5090  -19.4160 C   0  0  0  0  0  0  0  0  0  0  0  0
   -3.4840    1.4630  -19.5430 C   0  0  0  0  0  0  0  0  0  0  0  0
   -3.0540    1.8670  -20.7700 C   0  0  0  0  0  0  0  0  0  0  0  0
   -4.5950    0.3770  -21.8530 C   0  0  0  0  0  0  0  0  0  0  0  0
   -3.6070    1.3310  -21.9410 C   0  0  0  0  0  0  0  0  0  0  0  0
   -3.1080    1.7310  -23.2930 C   0  0  0  0  0  0  0  0  0  0  0  0
   -2.2690    1.0360  -23.8380 O   0  0  0  0  0  0  0  0  0  0  0  0
   -3.5830    2.8580  -23.8510 N   0  0  0  0  0  0  0  0  0  0  0  0
   -4.5060    3.7940  -23.2080 C   0  0  0  0  0  0  0  0  0  0  0  0
   -3.2320    3.2070  -25.2270 C   0  0  0  0  0  0  0  0  0  0  0  0
  2  1  1  0
  3  2  2  0
  4  3  1  0
  5  4  2  0
  6  2  1  0
  7  6  2  0
  7  5  1  0
  8  7  1  0
  9  8  1  0
 10  9  2  0
 11  9  1  0
 12 11  1  0
 13 12  2  0
 14 13  1  0
 15 14  2  0
 16 12  1  0
 17 16  2  0
 17 15  1  0
 18 17  1  0
 19 18  2  0
 20 16  1  0
 21 20  2  0
 21 19  1  0
 22 21  1  0
 23 22  2  0
 24 22  1  0
 25 24  1  0
 26 24  1  0
M  END
$$$$

     RDKit          3D

 35 37  0  0  0  0  0  0  0  0999 V2000
   -6.0520   -0.1050  -18.5920 C   0  0  0  0  0  0  0  0  0  0  0  0
   -7.2420   -4.6970  -20.0860 C   0  0  0  0  0  0  0  0  0  0  0  0
   -8.8720   -2.3710  -22.1260 C   0  0  0  0  0  0  0  0  0  0  0  0
   -9.7660    0.5050  -22.5590 C   0  0  0  0  0  0  0  0  0  0  0  0
  -11.9060    2.8640  -23.3280 C   0  0  0  0  0  0  0  0  0  0  0  0
   -5.3600   -0.6980  -20.8000 C   0  0  0  0  0  0  0  0  0  0  0  0
   -4.5620    0.5050  -20.2850 C   0  0  0  0  0  0  0  0  0  0  0  0
  -10.6600   -0.7410  -24.5370 C   0  0  0  0  0  0  0  0  0  0  0  0
   -6.4840   -0.9250  -19.7800 C   0  0  1  0  0  0  0  0  0  0  0  0
  -10.2740   -1.8790  -22.4070 C   0  0  2  0  0  0  0  0  0  0  0  0
  -11.1230   -2.1850  -24.6780 C   0  0  1  0  0  0  0  0  0  0  0  0
  -11.0100   -2.8720  -23.3170 C   0  0  2  0  0  0  0  0  0  0  0  0
  -12.3910   -2.4770  -23.8780 C   0  0  2  0  0  0  0  0  0  0  0  0
  -13.2140   -3.7110  -24.2530 C   0  0  0  0  0  0  0  0  0  0  0  0
  -13.1520   -1.4000  -23.0840 C   0  0  0  0  0  0  0  0  0  0  0  0
   -7.5710    1.3570  -24.5630 C   0  0  0  0  0  0  0  0  0  0  0  0
   -7.6440    2.7990  -22.5260 C   0  0  0  0  0  0  0  0  0  0  0  0
   -8.6350    3.5760  -24.6470 C   0  0  0  0  0  0  0  0  0  0  0  0
   -6.6440   -2.3940  -19.4000 C   0  0  0  0  0  0  0  0  0  0  0  0
   -7.2420   -3.2500  -20.5310 C   0  0  2  0  0  0  0  0  0  0  0  0
   -9.7810    1.7230  -23.4470 C   0  0  2  0  0  0  0  0  0  0  0  0
  -12.7840    3.8080  -22.5470 C   0  0  2  0  0  0  0  0  0  0  0  0
   -8.4140    2.3520  -23.7690 C   0  0  1  0  0  0  0  0  0  0  0  0
   -6.1780   -5.3760  -20.1050 N   0  0  0  0  0  0  0  0  0  0  0  0
   -5.0170    0.6780  -18.9100 N   0  0  0  0  0  0  0  0  0  0  0  0
  -10.2020   -0.6180  -23.1500 N   0  0  0  0  0  0  0  0  0  0  0  0
   -8.6040   -2.8460  -20.9060 N   0  0  0  0  0  0  0  0  0  0  0  0
  -10.6690    2.7020  -22.8660 N   0  0  0  0  0  0  0  0  0  0  0  0
   -6.6060   -0.1600  -17.4980 O   0  0  0  0  0  0  0  0  0  0  0  0
   -8.0090   -2.3180  -22.9940 O   0  0  0  0  0  0  0  0  0  0  0  0
   -9.4210    0.5550  -21.3840 O   0  0  0  0  0  0  0  0  0  0  0  0
  -12.3310    2.2920  -24.3190 O   0  0  0  0  0  0  0  0  0  0  0  0
  -13.9940    3.8270  -23.1010 F   0  0  0  0  0  0  0  0  0  0  0  0
  -12.2690    5.0370  -22.5090 F   0  0  0  0  0  0  0  0  0  0  0  0
  -12.8350    3.3590  -21.3120 F   0  0  0  0  0  0  0  0  0  0  0  0
  7  6  1  0
  9  1  1  0
  9  6  1  0
 10  3  1  6
 11  8  1  1
 12 11  1  0
 12 10  1  1
 13 12  1  0
 13 11  1  0
 13 14  1  6
 15 13  1  0
  9 19  1  1
 20 19  1  1
 20  2  1  0
 21  4  1  0
 22  5  1  0
 23 21  1  0
 23 18  1  6
 23 17  1  0
 23 16  1  0
 24  2  1  0
 25  1  1  0
 25  7  1  0
 26 10  1  0
 26  8  1  0
 26  4  1  0
 27  3  1  0
 27 20  1  0
 28  5  1  0
 21 28  1  1
 29  1  2  0
 30  3  2  0
 31  4  2  0
 32  5  2  0
 22 33  1  6
 34 22  1  0
 35 22  1  0
M  CHG  1  24   1
M  END
$$$$

     RDKit          3D

 15 16  0  0  0  0  0  0  0  0999 V2000
   -6.7590   -3.4540  -21.0770 N   0  0  0  0  0  0  0  0  0  0  0  0
   -7.0620   -3.5420  -18.6240 C   0  0  0  0  0  0  0  0  0  0  0  0
   -5.5010   -4.8510  -19.8540 O   0  0  0  0  0  0  0  0  0  0  0  0
   -6.3760   -3.9930  -19.9010 C   0  0  0  0  0  0  0  0  0  0  0  0
   -7.6890   -2.3440  -21.2490 C   0  0  0  0  0  0  0  0  0  0  0  0
   -6.3080   -3.9560  -22.3720 C   0  0  0  0  0  0  0  0  0  0  0  0
   -7.4960   -4.3930  -23.1970 C   0  0  0  0  0  0  0  0  0  0  0  0
   -9.6070   -3.7550  -24.1650 C   0  0  0  0  0  0  0  0  0  0  0  0
  -10.7180   -2.7380  -24.1910 C   0  0  0  0  0  0  0  0  0  0  0  0
  -11.8340   -2.6880  -23.3020 C   0  0  0  0  0  0  0  0  0  0  0  0
  -12.5750   -1.5660  -23.4210 C   0  0  0  0  0  0  0  0  0  0  0  0
  -10.7720   -1.6660  -25.0760 C   0  0  0  0  0  0  0  0  0  0  0  0
   -8.8750   -2.8010  -22.0650 C   0  0  0  0  0  0  0  0  0  0  0  0
   -8.4560   -3.3000  -23.3810 N   0  0  1  0  0  0  0  0  0  0  0  0
  -11.9540   -0.5420  -24.6120 S   0  0  0  0  0  0  0  0  0  0  0  0
  4  3  2  0
  4  2  1  0
  4  1  1  0
  5  1  1  0
  6  1  1  0
  7  6  1  0
  9  8  1  0
 10  9  1  0
 11 10  2  0
 12  9  2  0
 13  5  1  0
 14 13  1  0
 14  8  1  1
 14  7  1  0
 15 11  1  0
 15 12  1  0
M  CHG  1  14   1
M  END
$$$$

     RDKit          3D

 36 41  0  0  0  0  0  0  0  0999 V2000
   -8.9760    6.0420  -22.8260 N   0  0  0  0  0  0  0  0  0  0  0  0
   -8.2620    5.1580  -22.9030 C   0  0  0  0  0  0  0  0  0  0  0  0
   -7.3550    4.0020  -22.9410 C   0  0  1  0  0  0  0  0  0  0  0  0
   -6.0070    4.2010  -23.6030 C   0  0  0  0  0  0  0  0  0  0  0  0
   -6.0880    4.1520  -22.1220 C   0  0  0  0  0  0  0  0  0  0  0  0
   -8.0750    2.6600  -23.0490 C   0  0  0  0  0  0  0  0  0  0  0  0
   -8.3190    1.8890  -24.6400 S   0  0  2  0  0  0  0  0  0  0  0  0
   -7.0660    1.3600  -25.0740 O   0  0  0  0  0  0  0  0  0  0  0  0
   -9.0180    2.8060  -25.4820 O   0  0  0  0  0  0  0  0  0  0  0  0
   -9.3110    0.6210  -24.3790 N   0  0  0  0  0  0  0  0  0  0  0  0
   -8.8030   -0.7520  -24.2410 C   0  0  0  0  0  0  0  0  0  0  0  0
  -10.7400    0.6760  -24.7150 C   0  0  0  0  0  0  0  0  0  0  0  0
  -11.5530   -0.2070  -23.7880 C   0  0  0  0  0  0  0  0  0  0  0  0
  -10.9600   -1.2180  -23.0090 C   0  0  0  0  0  0  0  0  0  0  0  0
  -11.7630   -2.0290  -22.2080 C   0  0  0  0  0  0  0  0  0  0  0  0
  -13.1220   -1.7990  -22.1500 C   0  0  0  0  0  0  0  0  0  0  0  0
  -14.0920   -2.7540  -21.0600 Cl  0  0  0  0  0  0  0  0  0  0  0  0
  -13.7200   -0.8100  -22.8980 C   0  0  0  0  0  0  0  0  0  0  0  0
  -12.9340   -0.0230  -23.7210 C   0  0  0  0  0  0  0  0  0  0  0  0
   -9.4530   -1.3790  -22.9830 C   0  0  1  0  0  0  0  0  0  0  0  0
   -8.9300   -2.8070  -22.6520 C   0  0  1  0  0  0  0  0  0  0  0  0
   -8.8800   -3.7860  -23.8220 C   0  0  0  0  0  0  0  0  0  0  0  0
   -8.8950   -0.6120  -21.7720 C   0  0  0  0  0  0  0  0  0  0  0  0
   -9.3500    0.4090  -21.2980 O   0  0  0  0  0  0  0  0  0  0  0  0
   -7.7830   -1.2660  -21.3320 N   0  0  0  0  0  0  0  0  0  0  0  0
   -7.5580   -2.5310  -22.0420 C   0  0  0  0  0  0  0  0  0  0  0  0
   -6.9160   -0.8250  -20.2750 C   0  0  0  0  0  0  0  0  0  0  0  0
   -5.7600   -0.0190  -20.5220 C   0  0  0  0  0  0  0  0  0  0  0  0
   -5.3200    0.3690  -21.8160 C   0  0  0  0  0  0  0  0  0  0  0  0
   -4.2180    1.1620  -21.9810 C   0  0  0  0  0  0  0  0  0  0  0  0
   -3.5050    1.6170  -20.8790 C   0  0  0  0  0  0  0  0  0  0  0  0
   -3.8850    1.2740  -19.6120 C   0  0  0  0  0  0  0  0  0  0  0  0
   -5.0160    0.4450  -19.3980 C   0  0  0  0  0  0  0  0  0  0  0  0
   -5.4640    0.0630  -18.1040 C   0  0  0  0  0  0  0  0  0  0  0  0
   -6.5360   -0.6890  -17.8780 N   0  0  0  0  0  0  0  0  0  0  0  0
   -7.2280   -1.1110  -18.9470 C   0  0  0  0  0  0  0  0  0  0  0  0
  2  1  3  0
  3  2  1  1
  4  3  1  0
  5  4  1  0
  5  3  1  0
  6  3  1  0
  7  6  1  1
  8  7  2  0
  9  7  2  0
 10  7  1  0
 11 10  1  0
 12 10  1  0
 13 12  1  0
 14 13  2  0
 15 14  1  0
 16 15  2  0
 17 16  1  0
 18 16  1  0
 19 18  2  0
 19 13  1  0
 20 14  1  0
 20 11  1  6
 21 20  1  0
 21 22  1  6
 23 20  1  0
 24 23  2  0
 25 23  1  0
 26 21  1  0
 26 25  1  0
 27 25  1  0
 28 27  1  0
 29 28  2  0
 30 29  1  0
 31 30  2  0
 32 31  1  0
 33 28  1  0
 33 32  2  0
 34 33  1  0
 35 34  2  0
 36 35  1  0
 36 27  2  0
M  END
$$$$

     RDKit          3D

 31 35  0  0  0  0  0  0  0  0999 V2000
   -9.3880    0.3420  -21.5410 O   0  0  0  0  0  0  0  0  0  0  0  0
   -8.9040   -0.6860  -21.9780 C   0  0  0  0  0  0  0  0  0  0  0  0
   -7.8170   -1.3290  -21.4690 N   0  0  0  0  0  0  0  0  0  0  0  0
   -7.0050   -0.8570  -20.3860 C   0  0  0  0  0  0  0  0  0  0  0  0
   -5.8500   -0.0440  -20.5780 C   0  0  0  0  0  0  0  0  0  0  0  0
   -5.3300    0.3100  -21.8520 C   0  0  0  0  0  0  0  0  0  0  0  0
   -4.2140    1.0920  -21.9620 C   0  0  0  0  0  0  0  0  0  0  0  0
   -3.5730    1.5800  -20.8270 C   0  0  0  0  0  0  0  0  0  0  0  0
   -4.0300    1.2660  -19.5810 C   0  0  0  0  0  0  0  0  0  0  0  0
   -5.1710    0.4390  -19.4200 C   0  0  0  0  0  0  0  0  0  0  0  0
   -5.6790    0.0620  -18.1510 C   0  0  0  0  0  0  0  0  0  0  0  0
   -6.7480   -0.7050  -17.9760 N   0  0  0  0  0  0  0  0  0  0  0  0
   -7.3790   -1.1400  -19.0740 C   0  0  0  0  0  0  0  0  0  0  0  0
   -7.5770   -2.6300  -22.1160 C   0  0  0  0  0  0  0  0  0  0  0  0
   -8.8870   -2.9090  -22.8510 C   0  0  0  0  0  0  0  0  0  0  0  0
   -9.4220   -1.4930  -23.1750 C   0  0  1  0  0  0  0  0  0  0  0  0
  -10.9590   -1.4050  -23.2480 C   0  0  0  0  0  0  0  0  0  0  0  0
  -11.7610   -2.1890  -22.4170 C   0  0  0  0  0  0  0  0  0  0  0  0
  -13.1190   -1.9350  -22.3510 C   0  0  0  0  0  0  0  0  0  0  0  0
  -14.0830   -2.7870  -21.1770 Cl  0  0  0  0  0  0  0  0  0  0  0  0
  -13.7130   -0.9690  -23.1330 C   0  0  0  0  0  0  0  0  0  0  0  0
  -12.9300   -0.2350  -24.0020 C   0  0  0  0  0  0  0  0  0  0  0  0
  -11.5530   -0.4360  -24.0740 C   0  0  0  0  0  0  0  0  0  0  0  0
  -10.7390    0.3880  -25.0450 C   0  0  0  0  0  0  0  0  0  0  0  0
   -8.7770   -0.8630  -24.4380 C   0  0  0  0  0  0  0  0  0  0  0  0
   -9.3240    0.4760  -24.6570 N   0  0  1  0  0  0  0  0  0  0  0  0
   -8.5730    1.3550  -25.5490 C   0  0  0  0  0  0  0  0  0  0  0  0
   -7.6660    2.3520  -24.8470 C   0  0  0  0  0  0  0  0  0  0  0  0
   -6.6750    2.7980  -25.4180 O   0  0  0  0  0  0  0  0  0  0  0  0
   -7.9850    2.6930  -23.6010 N   0  0  0  0  0  0  0  0  0  0  0  0
   -7.1180    3.5130  -22.7760 C   0  0  0  0  0  0  0  0  0  0  0  0
  2  1  2  0
  3  2  1  0
  4  3  1  0
  5  4  1  0
  6  5  2  0
  7  6  1  0
  8  7  2  0
  9  8  1  0
 10  5  1  0
 10  9  2  0
 11 10  1  0
 12 11  2  0
 13 12  1  0
 13  4  2  0
 14  3  1  0
 15 14  1  0
 16 15  1  1
 16  2  1  0
 17 16  1  0
 18 17  2  0
 19 18  1  0
 20 19  1  0
 21 19  2  0
 22 21  1  0
 23 22  2  0
 23 17  1  0
 24 23  1  0
 25 16  1  0
 26 25  1  0
 26 24  1  0
 26 27  1  6
 28 27  1  0
 29 28  2  0
 30 28  1  0
 31 30  1  0
M  CHG  1  26   1
M  END
$$$$

     RDKit          3D

 26 27  0  0  0  0  0  0  0  0999 V2000
   -8.6490    0.1760  -21.3640 O   0  0  0  0  0  0  0  0  0  0  0  0
   -7.6710   -0.0320  -22.0760 C   0  0  0  0  0  0  0  0  0  0  0  0
   -7.4290    0.6140  -23.2100 N   0  0  0  0  0  0  0  0  0  0  0  0
   -8.3760    1.5600  -23.7710 C   0  0  0  0  0  0  0  0  0  0  0  0
   -6.6000   -1.0660  -21.6910 C   0  0  1  0  0  0  0  0  0  0  0  0
   -5.9930   -0.7730  -20.3290 C   0  0  0  0  0  0  0  0  0  0  0  0
   -4.8860    0.0550  -20.2130 C   0  0  0  0  0  0  0  0  0  0  0  0
   -4.4920    0.5180  -18.9730 C   0  0  0  0  0  0  0  0  0  0  0  0
   -5.2290    0.1320  -17.8680 C   0  0  0  0  0  0  0  0  0  0  0  0
   -6.2810   -0.6880  -17.9360 N   0  0  0  0  0  0  0  0  0  0  0  0
   -6.6290   -1.1360  -19.1480 C   0  0  0  0  0  0  0  0  0  0  0  0
   -7.0380   -2.4510  -22.0030 N   0  0  0  0  0  0  0  0  0  0  0  0
   -6.2100   -3.4850  -21.6700 C   0  0  0  0  0  0  0  0  0  0  0  0
   -5.0550   -3.2960  -21.3330 O   0  0  0  0  0  0  0  0  0  0  0  0
   -6.7670   -4.8830  -21.6860 C   0  0  0  0  0  0  0  0  0  0  0  0
   -6.6450   -5.5250  -20.3260 C   0  0  0  0  0  0  0  0  0  0  0  0
   -8.2760   -2.6690  -22.6930 C   0  0  0  0  0  0  0  0  0  0  0  0
   -8.3020   -2.7340  -24.0830 C   0  0  0  0  0  0  0  0  0  0  0  0
   -9.5040   -2.9010  -24.7500 C   0  0  0  0  0  0  0  0  0  0  0  0
  -10.7060   -3.0000  -24.0520 C   0  0  0  0  0  0  0  0  0  0  0  0
  -12.0340   -3.1030  -24.8140 C   0  0  1  0  0  0  0  0  0  0  0  0
  -12.0220   -4.2880  -25.7990 C   0  0  0  0  0  0  0  0  0  0  0  0
  -13.2300   -3.2860  -23.8780 C   0  0  0  0  0  0  0  0  0  0  0  0
  -12.2590   -1.8100  -25.5940 C   0  0  0  0  0  0  0  0  0  0  0  0
  -10.6640   -2.9490  -22.6610 C   0  0  0  0  0  0  0  0  0  0  0  0
   -9.4680   -2.7870  -21.9840 C   0  0  0  0  0  0  0  0  0  0  0  0
  2  1  2  0
  3  2  1  0
  4  3  1  0
  5  2  1  0
  6  5  1  0
  7  6  2  0
  8  7  1  0
  9  8  2  0
 10  9  1  0
 11 10  2  0
 11  6  1  0
  5 12  1  1
 13 12  1  0
 14 13  2  0
 15 13  1  0
 16 15  1  0
 17 12  1  0
 18 17  2  0
 19 18  1  0
 20 19  2  0
 21 20  1  0
 21 22  1  6
 23 21  1  0
 24 21  1  0
 25 20  1  0
 26 25  2  0
 26 17  1  0
M  END
$$$$

     RDKit          3D

 23 26  0  0  0  0  0  0  0  0999 V2000
   -9.1950    0.3700  -21.3850 O   0  0  0  0  0  0  0  0  0  0  0  0
   -8.7290   -0.6810  -21.8000 C   0  0  0  0  0  0  0  0  0  0  0  0
   -9.2060   -1.4840  -23.0050 C   0  0  2  0  0  0  0  0  0  0  0  0
  -10.7100   -1.3770  -23.1940 C   0  0  0  0  0  0  0  0  0  0  0  0
  -11.2500   -0.5120  -24.1400 C   0  0  0  0  0  0  0  0  0  0  0  0
  -12.6240   -0.3610  -24.2580 C   0  0  0  0  0  0  0  0  0  0  0  0
  -13.4780   -1.0650  -23.4210 C   0  0  0  0  0  0  0  0  0  0  0  0
  -11.5690   -2.1080  -22.3790 C   0  0  0  0  0  0  0  0  0  0  0  0
  -12.9330   -1.9200  -22.4860 C   0  0  0  0  0  0  0  0  0  0  0  0
  -13.9840   -2.7090  -21.3410 Cl  0  0  0  0  0  0  0  0  0  0  0  0
   -7.6740   -1.3570  -21.2490 N   0  0  0  0  0  0  0  0  0  0  0  0
   -7.4150   -2.6510  -21.9020 C   0  0  0  0  0  0  0  0  0  0  0  0
   -8.7060   -2.9050  -22.6670 C   0  0  0  0  0  0  0  0  0  0  0  0
   -6.8700   -0.8860  -20.1630 C   0  0  0  0  0  0  0  0  0  0  0  0
   -5.7340   -0.0590  -20.4020 C   0  0  0  0  0  0  0  0  0  0  0  0
   -5.2590    0.2880  -21.6950 C   0  0  0  0  0  0  0  0  0  0  0  0
   -4.1960    1.1330  -21.8530 C   0  0  0  0  0  0  0  0  0  0  0  0
   -3.5540    1.6760  -20.7470 C   0  0  0  0  0  0  0  0  0  0  0  0
   -3.9640    1.3670  -19.4830 C   0  0  0  0  0  0  0  0  0  0  0  0
   -5.0600    0.4910  -19.2730 C   0  0  0  0  0  0  0  0  0  0  0  0
   -5.5500    0.1560  -17.9850 C   0  0  0  0  0  0  0  0  0  0  0  0
   -6.5970   -0.6290  -17.7680 N   0  0  0  0  0  0  0  0  0  0  0  0
   -7.2310   -1.1280  -18.8410 C   0  0  0  0  0  0  0  0  0  0  0  0
  2  1  2  0
  3  2  1  0
  3  4  1  1
  5  4  2  0
  6  5  1  0
  7  6  2  0
  8  4  1  0
  9  8  2  0
  9  7  1  0
 10  9  1  0
 11  2  1  0
 12 11  1  0
 13 12  1  0
 13  3  1  0
 14 11  1  0
 15 14  1  0
 16 15  2  0
 17 16  1  0
 18 17  2  0
 19 18  1  0
 20 15  1  0
 20 19  2  0
 21 20  1  0
 22 21  2  0
 23 22  1  0
 23 14  2  0
M  END
$$$$

     RDKit          3D

 20 21  0  0  0  0  0  0  0  0999 V2000
   -7.2840   -3.6720  -21.1270 O   0  0  0  0  0  0  0  0  0  0  0  0
   -7.4430   -2.7560  -21.9250 C   0  0  0  0  0  0  0  0  0  0  0  0
   -8.0360   -2.9890  -23.3160 C   0  0  2  0  0  0  0  0  0  0  0  0
   -9.4400   -2.4000  -23.3950 C   0  0  0  0  0  0  0  0  0  0  0  0
  -10.4090   -2.7350  -22.4580 C   0  0  0  0  0  0  0  0  0  0  0  0
  -11.6550   -2.1210  -22.4750 C   0  0  0  0  0  0  0  0  0  0  0  0
  -11.9460   -1.1710  -23.4340 C   0  0  0  0  0  0  0  0  0  0  0  0
  -11.0020   -0.8520  -24.3910 C   0  0  0  0  0  0  0  0  0  0  0  0
   -9.7560   -1.4630  -24.3720 C   0  0  0  0  0  0  0  0  0  0  0  0
   -8.0200   -4.4910  -23.6360 C   0  0  0  0  0  0  0  0  0  0  0  0
   -8.3270   -4.8260  -25.0820 C   0  0  0  0  0  0  0  0  0  0  0  0
   -8.1880   -6.2630  -25.3170 N   0  0  0  0  0  0  0  0  0  0  0  0
   -9.0660   -6.7030  -26.3990 C   0  0  0  0  0  0  0  0  0  0  0  0
   -6.9760   -1.5120  -21.7130 N   0  0  0  0  0  0  0  0  0  0  0  0
   -6.6240   -0.9010  -20.4860 C   0  0  0  0  0  0  0  0  0  0  0  0
   -7.0790   -1.2620  -19.2160 C   0  0  0  0  0  0  0  0  0  0  0  0
   -6.5520   -0.7890  -18.0820 N   0  0  0  0  0  0  0  0  0  0  0  0
   -5.5240    0.0620  -18.1870 C   0  0  0  0  0  0  0  0  0  0  0  0
   -5.0000    0.4780  -19.3950 C   0  0  0  0  0  0  0  0  0  0  0  0
   -5.5660   -0.0030  -20.5590 C   0  0  0  0  0  0  0  0  0  0  0  0
  2  1  2  0
  3  2  1  0
  4  3  1  0
  5  4  2  0
  6  5  1  0
  7  6  2  0
  8  7  1  0
  9  8  2  0
  9  4  1  0
  3 10  1  1
 11 10  1  0
 12 11  1  0
 13 12  1  0
 14  2  1  0
 15 14  1  0
 16 15  2  0
 17 16  1  0
 18 17  2  0
 19 18  1  0
 20 15  1  0
 20 19  2  0
M  CHG  1  12   1
M  END
$$$$

     RDKit          3D

 33 37  0  0  0  0  0  0  0  0999 V2000
   -9.3730    0.1440  -21.2820 O   0  0  0  0  0  0  0  0  0  0  0  0
   -8.8140   -0.7820  -21.8470 C   0  0  0  0  0  0  0  0  0  0  0  0
   -7.6340   -1.2820  -21.4140 N   0  0  0  0  0  0  0  0  0  0  0  0
   -6.8940   -0.8680  -20.2840 C   0  0  0  0  0  0  0  0  0  0  0  0
   -5.7090   -0.0940  -20.4910 C   0  0  0  0  0  0  0  0  0  0  0  0
   -5.2040    0.2540  -21.7740 C   0  0  0  0  0  0  0  0  0  0  0  0
   -4.0910    1.0360  -21.9050 C   0  0  0  0  0  0  0  0  0  0  0  0
   -3.4280    1.5130  -20.7820 C   0  0  0  0  0  0  0  0  0  0  0  0
   -3.8650    1.1960  -19.5270 C   0  0  0  0  0  0  0  0  0  0  0  0
   -5.0120    0.3810  -19.3480 C   0  0  0  0  0  0  0  0  0  0  0  0
   -5.5230    0.0360  -18.0730 C   0  0  0  0  0  0  0  0  0  0  0  0
   -6.6150   -0.6920  -17.8810 N   0  0  0  0  0  0  0  0  0  0  0  0
   -7.2730   -1.1230  -18.9650 C   0  0  0  0  0  0  0  0  0  0  0  0
   -9.3920   -1.3780  -23.1500 C   0  0  1  0  0  0  0  0  0  0  0  0
  -10.9150   -1.2310  -23.1390 C   0  0  0  0  0  0  0  0  0  0  0  0
  -11.6900   -2.0300  -22.3020 C   0  0  0  0  0  0  0  0  0  0  0  0
  -13.0540   -1.8300  -22.2510 C   0  0  0  0  0  0  0  0  0  0  0  0
  -13.9860   -2.7030  -21.0680 Cl  0  0  0  0  0  0  0  0  0  0  0  0
  -13.6870   -0.8960  -23.0490 C   0  0  0  0  0  0  0  0  0  0  0  0
  -12.9340   -0.1240  -23.9120 C   0  0  0  0  0  0  0  0  0  0  0  0
  -11.5590   -0.2900  -23.9450 C   0  0  0  0  0  0  0  0  0  0  0  0
  -10.8800    0.5040  -24.8320 O   0  0  0  0  0  0  0  0  0  0  0  0
   -9.7000   -0.1330  -25.3520 C   0  0  0  0  0  0  0  0  0  0  0  0
   -8.7310   -0.5120  -24.2500 C   0  0  0  0  0  0  0  0  0  0  0  0
   -9.0680   -2.8830  -23.3180 C   0  0  0  0  0  0  0  0  0  0  0  0
   -7.6990   -3.1890  -23.7270 N   0  0  0  0  0  0  0  0  0  0  0  0
   -7.3410   -4.5670  -23.4460 C   0  0  0  0  0  0  0  0  0  0  0  0
   -8.1550   -5.4360  -24.3500 C   0  0  0  0  0  0  0  0  0  0  0  0
   -8.9810   -6.5540  -24.0190 C   0  0  0  0  0  0  0  0  0  0  0  0
   -9.4940   -6.9820  -25.2020 C   0  0  0  0  0  0  0  0  0  0  0  0
   -8.1650   -5.2010  -25.6670 N   0  0  0  0  0  0  0  0  0  0  0  0
   -8.9800   -6.1650  -26.1700 N   0  0  0  0  0  0  0  0  0  0  0  0
   -9.1440   -6.2780  -27.6120 C   0  0  0  0  0  0  0  0  0  0  0  0
  2  1  2  0
  3  2  1  0
  4  3  1  0
  5  4  1  0
  6  5  2  0
  7  6  1  0
  8  7  2  0
  9  8  1  0
 10  5  1  0
 10  9  2  0
 11 10  1  0
 12 11  2  0
 13 12  1  0
 13  4  2  0
 14  2  1  0
 15 14  1  0
 16 15  2  0
 17 16  1  0
 18 17  1  0
 19 17  2  0
 20 19  1  0
 21 20  2  0
 21 15  1  0
 22 21  1  0
 23 22  1  0
 24 23  1  0
 24 14  1  0
 14 25  1  6
 26 25  1  0
 27 26  1  0
 28 27  1  0
 29 28  1  0
 30 29  2  0
 31 28  2  0
 32 30  1  0
 32 31  1  0
 33 32  1  0
M  CHG  1  26   1
M  END
$$$$

     RDKit          3D

 27 31  0  0  0  0  0  0  0  0999 V2000
   -9.2410    0.1650  -21.3500 O   0  0  0  0  0  0  0  0  0  0  0  0
   -8.7550   -0.7870  -21.9370 C   0  0  0  0  0  0  0  0  0  0  0  0
   -9.4240   -1.3460  -23.1910 C   0  0  2  0  0  0  0  0  0  0  0  0
   -8.7960   -0.6280  -24.4110 C   0  0  0  0  0  0  0  0  0  0  0  0
   -9.3740    0.7520  -24.6330 C   0  0  0  0  0  0  0  0  0  0  0  0
  -10.8180    0.6790  -24.7140 N   0  0  0  0  0  0  0  0  0  0  0  0
  -10.9480   -1.1370  -23.1340 C   0  0  0  0  0  0  0  0  0  0  0  0
  -11.5500   -0.0910  -23.8510 C   0  0  0  0  0  0  0  0  0  0  0  0
  -12.9100    0.1670  -23.6960 C   0  0  0  0  0  0  0  0  0  0  0  0
  -13.6730   -0.6050  -22.8400 C   0  0  0  0  0  0  0  0  0  0  0  0
  -11.7300   -1.9400  -22.3050 C   0  0  0  0  0  0  0  0  0  0  0  0
  -13.0760   -1.6490  -22.1610 C   0  0  0  0  0  0  0  0  0  0  0  0
  -14.0300   -2.5900  -21.0460 Cl  0  0  0  0  0  0  0  0  0  0  0  0
   -7.5730   -1.3520  -21.5300 N   0  0  0  0  0  0  0  0  0  0  0  0
   -7.1860   -2.7430  -21.8160 C   0  0  0  0  0  0  0  0  0  0  0  0
   -7.6680   -3.1890  -23.1800 C   0  0  0  0  0  0  0  0  0  0  0  0
   -9.1450   -2.8580  -23.3480 C   0  0  0  0  0  0  0  0  0  0  0  0
   -6.8690   -0.8460  -20.3850 C   0  0  0  0  0  0  0  0  0  0  0  0
   -5.7160   -0.0150  -20.5150 C   0  0  0  0  0  0  0  0  0  0  0  0
   -5.1710    0.3980  -21.7580 C   0  0  0  0  0  0  0  0  0  0  0  0
   -4.0750    1.2100  -21.8120 C   0  0  0  0  0  0  0  0  0  0  0  0
   -3.4640    1.6520  -20.6470 C   0  0  0  0  0  0  0  0  0  0  0  0
   -3.9470    1.2810  -19.4240 C   0  0  0  0  0  0  0  0  0  0  0  0
   -5.0840    0.4420  -19.3210 C   0  0  0  0  0  0  0  0  0  0  0  0
   -5.6450    0.0480  -18.0820 C   0  0  0  0  0  0  0  0  0  0  0  0
   -6.7160   -0.7270  -17.9650 N   0  0  0  0  0  0  0  0  0  0  0  0
   -7.2950   -1.1560  -19.0950 C   0  0  0  0  0  0  0  0  0  0  0  0
  2  1  2  0
  3  2  1  0
  3  4  1  6
  5  4  1  0
  6  5  1  0
  7  3  1  0
  8  7  2  0
  8  6  1  0
  9  8  1  0
 10  9  2  0
 11  7  1  0
 12 11  2  0
 12 10  1  0
 13 12  1  0
 14  2  1  0
 15 14  1  0
 16 15  1  0
 17 16  1  0
 17  3  1  0
 18 14  1  0
 19 18  1  0
 20 19  2  0
 21 20  1  0
 22 21  2  0
 23 22  1  0
 24 19  1  0
 24 23  2  0
 25 24  1  0
 26 25  2  0
 27 26  1  0
 27 18  2  0
M  END
$$$$

     RDKit          3D

 25 27  0  0  0  0  0  0  0  0999 V2000
   -8.7880   -1.8550  -22.7410 N   0  0  0  0  0  0  0  0  0  0  0  0
   -6.2580   -0.3540  -17.8550 N   0  0  0  0  0  0  0  0  0  0  0  0
   -6.9460   -6.5360  -27.1810 C   0  0  0  0  0  0  0  0  0  0  0  0
  -12.8460   -1.0960  -23.4650 C   0  0  0  0  0  0  0  0  0  0  0  0
   -5.1490    0.3600  -18.0860 C   0  0  0  0  0  0  0  0  0  0  0  0
   -8.1500   -4.6270  -25.2240 C   0  0  1  0  0  0  0  0  0  0  0  0
  -11.8730   -0.5220  -24.2690 C   0  0  0  0  0  0  0  0  0  0  0  0
   -5.1180   -0.2240  -20.3920 C   0  0  0  0  0  0  0  0  0  0  0  0
   -7.9270   -2.6110  -23.6660 C   0  0  0  0  0  0  0  0  0  0  0  0
  -11.1370   -2.3450  -22.3080 C   0  0  0  0  0  0  0  0  0  0  0  0
  -10.1630   -1.7230  -23.0870 C   0  0  0  0  0  0  0  0  0  0  0  0
   -8.3900   -6.6820  -26.7140 C   0  0  0  0  0  0  0  0  0  0  0  0
   -6.6990   -4.5010  -25.7070 C   0  0  0  0  0  0  0  0  0  0  0  0
   -4.5440    0.4510  -19.3310 C   0  0  0  0  0  0  0  0  0  0  0  0
   -8.5910   -6.0910  -25.3150 C   0  0  0  0  0  0  0  0  0  0  0  0
   -6.4940   -5.0820  -27.1070 C   0  0  0  0  0  0  0  0  0  0  0  0
   -6.7960   -1.0060  -18.8880 C   0  0  0  0  0  0  0  0  0  0  0  0
   -8.2220   -1.1640  -21.6420 C   0  0  0  0  0  0  0  0  0  0  0  0
  -12.4610   -2.0090  -22.5080 C   0  0  0  0  0  0  0  0  0  0  0  0
   -6.9850   -1.5610  -21.2500 N   0  0  0  0  0  0  0  0  0  0  0  0
   -8.8380   -0.2470  -21.1120 O   0  0  0  0  0  0  0  0  0  0  0  0
   -8.3420   -4.0680  -23.8030 C   0  0  0  0  0  0  0  0  0  0  0  0
  -10.5340   -0.8360  -24.0910 C   0  0  0  0  0  0  0  0  0  0  0  0
   -6.2760   -0.9620  -20.1840 C   0  0  0  0  0  0  0  0  0  0  0  0
  -13.6770   -2.7440  -21.4980 Cl  0  0  0  0  0  0  0  0  0  0  0  0
  5  2  2  0
  7  4  2  0
  9  1  1  0
 11 10  1  0
 11  1  1  0
 12  3  1  0
 13  6  1  0
 14  8  2  0
 14  5  1  0
 15 12  1  0
 15  6  1  0
 16  3  1  0
 16 13  1  0
 17  2  1  0
 18  1  1  0
 19 10  2  0
 19  4  1  0
 20 18  1  0
 21 18  2  0
 22  9  1  0
  6 22  1  1
 23  7  1  0
 23 11  2  0
 24 20  1  0
 24 17  2  0
 24  8  1  0
 25 19  1  0
M  END
$$$$

     RDKit          3D

 25 28  0  0  0  0  0  0  0  0999 V2000
  -13.6720   -2.8870  -21.8130 Cl  0  0  0  0  0  0  0  0  0  0  0  0
  -12.3600   -2.1350  -22.6550 C   0  0  0  0  0  0  0  0  0  0  0  0
  -12.6140   -1.2130  -23.6490 C   0  0  0  0  0  0  0  0  0  0  0  0
  -13.8940   -0.8810  -23.9250 F   0  0  0  0  0  0  0  0  0  0  0  0
  -11.0570   -2.4330  -22.3150 C   0  0  0  0  0  0  0  0  0  0  0  0
   -9.9960   -1.8200  -22.9780 C   0  0  0  0  0  0  0  0  0  0  0  0
  -10.2940   -0.9060  -23.9990 C   0  0  0  0  0  0  0  0  0  0  0  0
  -11.6000   -0.5880  -24.3290 C   0  0  0  0  0  0  0  0  0  0  0  0
   -8.5580   -2.1380  -22.6300 C   0  0  1  0  0  0  0  0  0  0  0  0
   -7.7320   -2.0130  -23.9200 C   0  0  0  0  0  0  0  0  0  0  0  0
   -7.9400   -0.6530  -24.5460 C   0  0  0  0  0  0  0  0  0  0  0  0
   -9.3330   -0.3010  -24.7730 O   0  0  0  0  0  0  0  0  0  0  0  0
   -8.1180   -1.1590  -21.5380 C   0  0  0  0  0  0  0  0  0  0  0  0
   -8.4560    0.0250  -21.5440 O   0  0  0  0  0  0  0  0  0  0  0  0
   -7.4360   -1.7230  -20.5170 N   0  0  0  0  0  0  0  0  0  0  0  0
   -6.4770   -1.1700  -19.6390 C   0  0  0  0  0  0  0  0  0  0  0  0
   -5.5470   -0.1700  -20.0770 C   0  0  0  0  0  0  0  0  0  0  0  0
   -5.1020   -0.0400  -21.4190 C   0  0  0  0  0  0  0  0  0  0  0  0
   -4.0850    0.8150  -21.7470 C   0  0  0  0  0  0  0  0  0  0  0  0
   -3.4710    1.5900  -20.7760 C   0  0  0  0  0  0  0  0  0  0  0  0
   -3.8710    1.5160  -19.4730 C   0  0  0  0  0  0  0  0  0  0  0  0
   -4.9090    0.6330  -19.0860 C   0  0  0  0  0  0  0  0  0  0  0  0
   -5.2540    0.4070  -17.7350 C   0  0  0  0  0  0  0  0  0  0  0  0
   -6.0890   -0.5310  -17.3270 N   0  0  0  0  0  0  0  0  0  0  0  0
   -6.6510   -1.3040  -18.2630 C   0  0  0  0  0  0  0  0  0  0  0  0
  2  1  1  0
  3  2  2  0
  4  3  1  0
  5  2  1  0
  6  5  2  0
  7  6  1  0
  8  3  1  0
  8  7  2  0
  9  6  1  0
 10  9  1  0
 11 10  1  0
 12 11  1  0
 12  7  1  0
  9 13  1  1
 14 13  2  0
 15 13  1  0
 16 15  1  0
 17 16  1  0
 18 17  2  0
 19 18  1  0
 20 19  2  0
 21 20  1  0
 22 17  1  0
 22 21  2  0
 23 22  1  0
 24 23  2  0
 25 24  1  0
 25 16  2  0
M  END
$$$$

     RDKit          3D

 11 11  0  0  0  0  0  0  0  0999 V2000
   -7.0650   -4.2620  -21.6060 N   0  0  0  0  0  0  0  0  0  0  0  0
   -8.1650   -3.7090  -19.5940 C   0  0  0  0  0  0  0  0  0  0  0  0
   -5.9500   -4.6240  -19.6520 O   0  0  0  0  0  0  0  0  0  0  0  0
   -6.9360   -4.2560  -20.2690 C   0  0  0  0  0  0  0  0  0  0  0  0
   -6.0470   -4.3520  -22.5790 C   0  0  0  0  0  0  0  0  0  0  0  0
   -5.6340   -3.2480  -23.3230 C   0  0  0  0  0  0  0  0  0  0  0  0
   -4.6410   -3.4210  -24.2630 C   0  0  0  0  0  0  0  0  0  0  0  0
   -4.1070   -4.6790  -24.4280 C   0  0  0  0  0  0  0  0  0  0  0  0
   -5.4480   -5.5790  -22.8250 C   0  0  0  0  0  0  0  0  0  0  0  0
   -4.4990   -5.7440  -23.7220 N   0  0  0  0  0  0  0  0  0  0  0  0
   -5.9280   -6.9880  -21.9450 Cl  0  0  0  0  0  0  0  0  0  0  0  0
  4  3  2  0
  4  2  1  0
  4  1  1  0
  5  1  1  0
  6  5  2  0
  7  6  1  0
  8  7  2  0
  9  5  1  0
 10  9  2  0
 10  8  1  0
 11  9  1  0
M  END
$$$$

     RDKit          3D

 33 37  0  0  0  0  0  0  0  0999 V2000
  -13.8400   -2.7630  -21.5790 Cl  0  0  0  0  0  0  0  0  0  0  0  0
  -12.6580   -1.9060  -22.5320 C   0  0  0  0  0  0  0  0  0  0  0  0
  -11.3270   -2.2690  -22.4440 C   0  0  0  0  0  0  0  0  0  0  0  0
  -13.0770   -0.8950  -23.3630 C   0  0  0  0  0  0  0  0  0  0  0  0
  -12.1500   -0.2660  -24.1720 C   0  0  0  0  0  0  0  0  0  0  0  0
  -10.8030   -0.6180  -24.1330 C   0  0  0  0  0  0  0  0  0  0  0  0
   -9.8640    0.0350  -25.1180 C   0  0  0  0  0  0  0  0  0  0  0  0
   -8.4790   -0.0960  -24.6590 N   0  0  0  0  0  0  0  0  0  0  0  0
   -7.4530    1.1490  -24.8820 S   0  0  2  0  0  0  0  0  0  0  0  0
   -8.0720    2.0470  -25.8060 O   0  0  0  0  0  0  0  0  0  0  0  0
   -6.1770    0.5890  -25.2050 O   0  0  0  0  0  0  0  0  0  0  0  0
   -7.3380    1.9750  -23.3050 C   0  0  0  0  0  0  0  0  0  0  0  0
   -6.7420    3.3940  -23.3220 C   0  0  2  0  0  0  0  0  0  0  0  0
   -5.3260    3.6110  -23.7330 C   0  0  0  0  0  0  0  0  0  0  0  0
   -5.7480    3.8220  -22.2980 C   0  0  0  0  0  0  0  0  0  0  0  0
   -7.6660    4.3700  -23.8410 O   0  0  0  0  0  0  0  0  0  0  0  0
   -8.2670    5.3230  -22.9510 C   0  0  0  0  0  0  0  0  0  0  0  0
  -10.3760   -1.6030  -23.2260 C   0  0  0  0  0  0  0  0  0  0  0  0
   -8.8920   -1.8660  -23.0150 C   0  0  1  0  0  0  0  0  0  0  0  0
   -8.0840   -1.4580  -24.2510 C   0  0  0  0  0  0  0  0  0  0  0  0
   -8.3820   -1.0970  -21.7910 C   0  0  0  0  0  0  0  0  0  0  0  0
   -8.9580   -0.0990  -21.3600 O   0  0  0  0  0  0  0  0  0  0  0  0
   -7.2350   -1.5850  -21.2450 N   0  0  0  0  0  0  0  0  0  0  0  0
   -6.5160   -1.0720  -20.1350 C   0  0  0  0  0  0  0  0  0  0  0  0
   -5.3660   -0.2450  -20.3710 C   0  0  0  0  0  0  0  0  0  0  0  0
   -4.8100   -0.0090  -21.6570 C   0  0  0  0  0  0  0  0  0  0  0  0
   -3.7420    0.8280  -21.8200 C   0  0  0  0  0  0  0  0  0  0  0  0
   -3.1720    1.4730  -20.7260 C   0  0  0  0  0  0  0  0  0  0  0  0
   -3.6560    1.2630  -19.4660 C   0  0  0  0  0  0  0  0  0  0  0  0
   -4.7580    0.3950  -19.2510 C   0  0  0  0  0  0  0  0  0  0  0  0
   -5.3060    0.1460  -17.9680 C   0  0  0  0  0  0  0  0  0  0  0  0
   -6.3540   -0.6400  -17.7460 N   0  0  0  0  0  0  0  0  0  0  0  0
   -6.9310   -1.2200  -18.8100 C   0  0  0  0  0  0  0  0  0  0  0  0
  2  1  1  0
  3  2  2  0
  4  2  1  0
  5  4  2  0
  6  5  1  0
  7  6  1  0
  8  7  1  0
  9  8  1  0
 10  9  2  0
 11  9  2  0
  9 12  1  1
 13 12  1  1
 14 13  1  0
 15 13  1  0
 15 14  1  0
 16 13  1  0
 17 16  1  0
 18  3  1  0
 18  6  2  0
 19 18  1  0
 20 19  1  0
 20  8  1  0
 19 21  1  1
 22 21  2  0
 23 21  1  0
 24 23  1  0
 25 24  1  0
 26 25  2  0
 27 26  1  0
 28 27  2  0
 29 28  1  0
 30 29  2  0
 30 25  1  0
 31 30  1  0
 32 31  2  0
 33 32  1  0
 33 24  2  0
M  END
$$$$

     RDKit          3D

 24 27  0  0  0  0  0  0  0  0999 V2000
   -9.2120   -0.0210  -21.2180 O   0  0  0  0  0  0  0  0  0  0  0  0
   -8.6100   -0.9600  -21.7390 C   0  0  0  0  0  0  0  0  0  0  0  0
   -9.1680   -1.7200  -22.9430 C   0  0  1  0  0  0  0  0  0  0  0  0
  -10.6660   -1.4970  -23.0160 C   0  0  0  0  0  0  0  0  0  0  0  0
  -11.5370   -2.2070  -22.1930 C   0  0  0  0  0  0  0  0  0  0  0  0
   -8.5010   -1.2690  -24.2550 C   0  0  0  0  0  0  0  0  0  0  0  0
   -9.0170    0.0890  -24.6510 C   0  0  0  0  0  0  0  0  0  0  0  0
  -10.4560    0.1100  -24.8440 O   0  0  0  0  0  0  0  0  0  0  0  0
  -11.2140   -0.5960  -23.9390 C   0  0  0  0  0  0  0  0  0  0  0  0
  -12.5840   -0.4010  -24.0290 C   0  0  0  0  0  0  0  0  0  0  0  0
  -13.4330   -1.1090  -23.1960 C   0  0  0  0  0  0  0  0  0  0  0  0
  -12.8970   -2.0060  -22.2940 C   0  0  0  0  0  0  0  0  0  0  0  0
  -13.9630   -2.8880  -21.2340 Cl  0  0  0  0  0  0  0  0  0  0  0  0
   -7.3520   -1.2890  -21.3990 N   0  0  0  0  0  0  0  0  0  0  0  0
   -6.6440   -0.9990  -20.2250 C   0  0  0  0  0  0  0  0  0  0  0  0
   -7.1330   -1.0930  -18.9230 C   0  0  0  0  0  0  0  0  0  0  0  0
   -6.5650   -0.5640  -17.8300 N   0  0  0  0  0  0  0  0  0  0  0  0
   -5.4620    0.1380  -18.0010 C   0  0  0  0  0  0  0  0  0  0  0  0
   -4.8640    0.3800  -19.2590 C   0  0  0  0  0  0  0  0  0  0  0  0
   -5.4580   -0.2210  -20.4040 C   0  0  0  0  0  0  0  0  0  0  0  0
   -3.7790    1.2630  -19.4800 C   0  0  0  0  0  0  0  0  0  0  0  0
   -3.3040    1.5710  -20.6830 N   0  0  0  0  0  0  0  0  0  0  0  0
   -3.8760    0.9880  -21.7460 C   0  0  0  0  0  0  0  0  0  0  0  0
   -4.9150    0.1060  -21.6720 C   0  0  0  0  0  0  0  0  0  0  0  0
  2  1  2  0
  3  2  1  1
  4  3  1  0
  5  4  2  0
  6  3  1  0
  7  6  1  0
  8  7  1  0
  9  8  1  0
  9  4  1  0
 10  9  2  0
 11 10  1  0
 12 11  2  0
 12  5  1  0
 13 12  1  0
 14  2  1  0
 15 14  1  0
 16 15  2  0
 17 16  1  0
 18 17  2  0
 19 18  1  0
 20 15  1  0
 20 19  2  0
 21 19  1  0
 22 21  2  0
 23 22  1  0
 24 20  1  0
 24 23  2  0
M  END
$$$$

     RDKit          3D

 25 28  0  0  0  0  0  0  0  0999 V2000
  -13.5000   -2.8080  -21.6380 Cl  0  0  0  0  0  0  0  0  0  0  0  0
  -12.1740   -2.1760  -22.5720 C   0  0  0  0  0  0  0  0  0  0  0  0
  -10.9000   -2.6130  -22.2930 C   0  0  0  0  0  0  0  0  0  0  0  0
  -12.4240   -1.2650  -23.5700 C   0  0  0  0  0  0  0  0  0  0  0  0
  -11.3700   -0.7930  -24.3360 C   0  0  0  0  0  0  0  0  0  0  0  0
  -10.0680   -1.2130  -24.0690 C   0  0  0  0  0  0  0  0  0  0  0  0
   -8.9830   -0.7600  -24.8210 N   0  0  0  0  0  0  0  0  0  0  0  0
   -9.1970    0.1570  -25.9390 C   0  0  0  0  0  0  0  0  0  0  0  0
   -9.8270   -2.1250  -23.0300 C   0  0  0  0  0  0  0  0  0  0  0  0
   -8.4250   -2.5630  -22.6700 C   0  0  1  0  0  0  0  0  0  0  0  0
   -7.4830   -2.4830  -23.8930 C   0  0  0  0  0  0  0  0  0  0  0  0
   -7.5890   -1.1230  -24.5780 C   0  0  0  0  0  0  0  0  0  0  0  0
   -8.0340   -1.6060  -21.5460 C   0  0  0  0  0  0  0  0  0  0  0  0
   -8.6620   -0.5730  -21.3160 O   0  0  0  0  0  0  0  0  0  0  0  0
   -6.9470   -1.9860  -20.8430 N   0  0  0  0  0  0  0  0  0  0  0  0
   -6.2660   -1.2410  -19.8700 C   0  0  0  0  0  0  0  0  0  0  0  0
   -5.1660   -0.4330  -20.2920 C   0  0  0  0  0  0  0  0  0  0  0  0
   -4.6620   -0.4120  -21.6190 C   0  0  0  0  0  0  0  0  0  0  0  0
   -3.5920    0.3660  -21.9510 C   0  0  0  0  0  0  0  0  0  0  0  0
   -2.9730    1.1620  -20.9980 C   0  0  0  0  0  0  0  0  0  0  0  0
   -3.4300    1.1900  -19.7130 C   0  0  0  0  0  0  0  0  0  0  0  0
   -4.5340    0.3900  -19.3230 C   0  0  0  0  0  0  0  0  0  0  0  0
   -5.0430    0.3570  -18.0030 C   0  0  0  0  0  0  0  0  0  0  0  0
   -6.0630   -0.4000  -17.6120 N   0  0  0  0  0  0  0  0  0  0  0  0
   -6.6470   -1.1740  -18.5310 C   0  0  0  0  0  0  0  0  0  0  0  0
  2  1  1  0
  3  2  2  0
  4  2  1  0
  5  4  2  0
  6  5  1  0
  7  6  1  0
  8  7  1  0
  9  3  1  0
  9  6  2  0
 10  9  1  0
 11 10  1  0
 12 11  1  0
 12  7  1  0
 10 13  1  1
 14 13  2  0
 15 13  1  0
 16 15  1  0
 17 16  1  0
 18 17  2  0
 19 18  1  0
 20 19  2  0
 21 20  1  0
 22 21  2  0
 22 17  1  0
 23 22  1  0
 24 23  2  0
 25 24  1  0
 25 16  2  0
M  END
$$$$

     RDKit          3D

 25 28  0  0  0  0  0  0  0  0999 V2000
   -9.2380    0.1870  -21.3250 O   0  0  0  0  0  0  0  0  0  0  0  0
   -8.7480   -0.8570  -21.7400 C   0  0  0  0  0  0  0  0  0  0  0  0
   -9.4180   -1.6670  -22.9180 C   0  0  1  0  0  0  0  0  0  0  0  0
  -10.9260   -1.4610  -22.9000 C   0  0  0  0  0  0  0  0  0  0  0  0
  -11.7590   -2.2750  -22.1350 C   0  0  0  0  0  0  0  0  0  0  0  0
  -13.1190   -2.0340  -22.1280 C   0  0  0  0  0  0  0  0  0  0  0  0
  -14.1440   -3.0390  -21.1360 Cl  0  0  0  0  0  0  0  0  0  0  0  0
  -13.6840   -1.0030  -22.8530 C   0  0  0  0  0  0  0  0  0  0  0  0
  -12.8720   -0.1900  -23.6210 C   0  0  0  0  0  0  0  0  0  0  0  0
  -11.5080   -0.4350  -23.6610 C   0  0  0  0  0  0  0  0  0  0  0  0
  -10.8050    0.3180  -24.5720 O   0  0  0  0  0  0  0  0  0  0  0  0
   -9.3630    0.2090  -24.5510 C   0  0  0  0  0  0  0  0  0  0  0  0
   -8.8810   -1.1990  -24.2750 C   0  0  0  0  0  0  0  0  0  0  0  0
   -9.1150   -3.0580  -22.8040 O   0  0  0  0  0  0  0  0  0  0  0  0
   -7.6330   -1.4020  -21.2110 N   0  0  0  0  0  0  0  0  0  0  0  0
   -6.8860   -0.9370  -20.1160 C   0  0  0  0  0  0  0  0  0  0  0  0
   -5.7590   -0.0940  -20.3650 C   0  0  0  0  0  0  0  0  0  0  0  0
   -5.3230    0.2750  -21.6620 C   0  0  0  0  0  0  0  0  0  0  0  0
   -4.2290    1.0780  -21.8330 C   0  0  0  0  0  0  0  0  0  0  0  0
   -3.5210    1.5520  -20.7390 C   0  0  0  0  0  0  0  0  0  0  0  0
   -3.9040    1.2280  -19.4680 C   0  0  0  0  0  0  0  0  0  0  0  0
   -5.0320    0.4000  -19.2450 C   0  0  0  0  0  0  0  0  0  0  0  0
   -5.4810    0.0320  -17.9550 C   0  0  0  0  0  0  0  0  0  0  0  0
   -6.5320   -0.7440  -17.7240 N   0  0  0  0  0  0  0  0  0  0  0  0
   -7.2010   -1.2140  -18.7850 C   0  0  0  0  0  0  0  0  0  0  0  0
  2  1  2  0
  3  2  1  0
  4  3  1  0
  5  4  2  0
  6  5  1  0
  7  6  1  0
  8  6  2  0
  9  8  1  0
 10  9  2  0
 10  4  1  0
 11 10  1  0
 12 11  1  0
 13 12  1  0
 13  3  1  0
  3 14  1  1
 15  2  1  0
 16 15  1  0
 17 16  1  0
 18 17  2  0
 19 18  1  0
 20 19  2  0
 21 20  1  0
 22 17  1  0
 22 21  2  0
 23 22  1  0
 24 23  2  0
 25 24  1  0
 25 16  2  0
M  END
$$$$

     RDKit          3D

 27 29  0  0  0  0  0  0  0  0999 V2000
   -8.5840   -0.0630  -21.1060 O   0  0  0  0  0  0  0  0  0  0  0  0
   -8.0550   -1.0740  -21.5430 C   0  0  0  0  0  0  0  0  0  0  0  0
   -6.9040   -1.5750  -21.0460 N   0  0  0  0  0  0  0  0  0  0  0  0
   -6.2160   -0.9670  -19.9640 C   0  0  0  0  0  0  0  0  0  0  0  0
   -5.1010   -0.1550  -20.2250 C   0  0  0  0  0  0  0  0  0  0  0  0
   -4.5650    0.0360  -21.6220 C   0  0  0  0  0  0  0  0  0  0  0  0
   -4.5290    0.5130  -19.1480 C   0  0  0  0  0  0  0  0  0  0  0  0
   -5.0750    0.3690  -17.8850 C   0  0  0  0  0  0  0  0  0  0  0  0
   -6.1380   -0.4030  -17.6230 N   0  0  0  0  0  0  0  0  0  0  0  0
   -6.6830   -1.0630  -18.6510 C   0  0  0  0  0  0  0  0  0  0  0  0
   -8.6590   -1.8410  -22.7030 C   0  0  0  0  0  0  0  0  0  0  0  0
  -10.0620   -1.3680  -23.0240 C   0  0  0  0  0  0  0  0  0  0  0  0
  -11.1380   -2.2400  -22.9120 C   0  0  0  0  0  0  0  0  0  0  0  0
  -12.4140   -1.7770  -23.1570 C   0  0  0  0  0  0  0  0  0  0  0  0
  -13.7360   -2.9090  -23.1560 Cl  0  0  0  0  0  0  0  0  0  0  0  0
  -12.6630   -0.4600  -23.4880 C   0  0  0  0  0  0  0  0  0  0  0  0
  -10.3020   -0.0490  -23.3930 C   0  0  0  0  0  0  0  0  0  0  0  0
  -11.5940    0.4290  -23.6190 C   0  0  0  0  0  0  0  0  0  0  0  0
  -11.8340    1.8460  -24.0150 C   0  0  0  0  0  0  0  0  0  0  0  0
  -12.9930    2.4880  -23.5780 C   0  0  0  0  0  0  0  0  0  0  0  0
  -13.2980    3.7740  -23.9970 C   0  0  0  0  0  0  0  0  0  0  0  0
  -11.0030    2.5770  -24.8560 C   0  0  0  0  0  0  0  0  0  0  0  0
   -9.8930    2.0030  -25.3480 F   0  0  0  0  0  0  0  0  0  0  0  0
  -11.3040    3.8600  -25.2530 C   0  0  0  0  0  0  0  0  0  0  0  0
  -10.4440    4.5160  -26.0560 F   0  0  0  0  0  0  0  0  0  0  0  0
  -12.4690    4.4880  -24.8670 C   0  0  0  0  0  0  0  0  0  0  0  0
  -12.8990    5.8230  -25.4170 C   0  0  0  0  0  0  0  0  0  0  0  0
  2  1  2  0
  3  2  1  0
  4  3  1  0
  5  4  2  0
  6  5  1  0
  7  5  1  0
  8  7  2  0
  9  8  1  0
 10  9  2  0
 10  4  1  0
 11  2  1  0
 12 11  1  0
 13 12  2  0
 14 13  1  0
 15 14  1  0
 16 14  2  0
 17 12  1  0
 18 16  1  0
 18 17  2  0
 19 18  1  0
 20 19  2  0
 21 20  1  0
 22 19  1  0
 23 22  1  0
 24 22  2  0
 25 24  1  0
 26 24  1  0
 26 21  2  0
 27 26  1  0
M  END
$$$$

     RDKit          3D

 20 22  0  0  0  0  0  0  0  0999 V2000
   -8.7960   -0.1790  -21.4490 O   0  0  0  0  0  0  0  0  0  0  0  0
   -8.3880   -1.2970  -21.7500 C   0  0  0  0  0  0  0  0  0  0  0  0
   -8.7830   -1.9650  -23.0540 C   0  0  0  0  0  0  0  0  0  0  0  0
  -10.2670   -1.8080  -23.2930 C   0  0  0  0  0  0  0  0  0  0  0  0
  -10.7460   -0.8860  -24.2160 C   0  0  0  0  0  0  0  0  0  0  0  0
  -12.0920   -0.5600  -24.2580 C   0  0  0  0  0  0  0  0  0  0  0  0
  -12.9860   -1.1690  -23.3880 C   0  0  0  0  0  0  0  0  0  0  0  0
  -11.1720   -2.4610  -22.4630 C   0  0  0  0  0  0  0  0  0  0  0  0
  -12.5100   -2.1320  -22.5210 C   0  0  0  0  0  0  0  0  0  0  0  0
  -13.6280   -2.9710  -21.4800 Cl  0  0  0  0  0  0  0  0  0  0  0  0
   -7.5400   -2.0060  -20.9850 N   0  0  0  0  0  0  0  0  0  0  0  0
   -6.8950   -1.3760  -19.9280 N   0  0  0  0  0  0  0  0  0  0  0  0
   -5.7320   -0.6150  -20.0320 C   0  0  0  0  0  0  0  0  0  0  0  0
   -5.5310   -0.1230  -18.7420 C   0  0  0  0  0  0  0  0  0  0  0  0
   -6.5160   -0.6100  -17.8750 N   0  0  0  0  0  0  0  0  0  0  0  0
   -7.2950   -1.3390  -18.6340 C   0  0  0  0  0  0  0  0  0  0  0  0
   -4.9790   -0.1820  -21.1160 C   0  0  0  0  0  0  0  0  0  0  0  0
   -3.9930    0.7690  -20.8770 C   0  0  0  0  0  0  0  0  0  0  0  0
   -3.7700    1.2650  -19.5900 C   0  0  0  0  0  0  0  0  0  0  0  0
   -4.5350    0.8250  -18.5130 C   0  0  0  0  0  0  0  0  0  0  0  0
  2  1  2  0
  3  2  1  0
  4  3  1  0
  5  4  2  0
  6  5  1  0
  7  6  2  0
  8  4  1  0
  9  8  2  0
  9  7  1  0
 10  9  1  0
 11  2  1  0
 12 11  1  0
 13 12  1  0
 14 13  2  0
 15 14  1  0
 16 15  2  0
 16 12  1  0
 17 13  1  0
 18 17  2  0
 19 18  1  0
 20 14  1  0
 20 19  2  0
M  END
$$$$

     RDKit          3D

 31 34  0  0  0  0  0  0  0  0999 V2000
   -8.8800    0.3980  -21.3180 O   0  0  0  0  0  0  0  0  0  0  0  0
   -8.6470   -0.6840  -21.8480 C   0  0  0  0  0  0  0  0  0  0  0  0
   -7.7140   -1.6810  -21.1850 C   0  0  0  0  0  0  0  0  0  0  0  0
   -6.8750   -1.0490  -20.0950 C   0  0  0  0  0  0  0  0  0  0  0  0
   -5.7880   -0.1860  -20.4160 C   0  0  0  0  0  0  0  0  0  0  0  0
   -5.3950    0.1120  -21.7490 C   0  0  0  0  0  0  0  0  0  0  0  0
   -4.3550    0.9630  -22.0010 C   0  0  0  0  0  0  0  0  0  0  0  0
   -3.6590    1.5590  -20.9580 C   0  0  0  0  0  0  0  0  0  0  0  0
   -4.0030    1.3090  -19.6610 C   0  0  0  0  0  0  0  0  0  0  0  0
   -5.0680    0.4290  -19.3550 C   0  0  0  0  0  0  0  0  0  0  0  0
   -5.4780    0.1330  -18.0310 C   0  0  0  0  0  0  0  0  0  0  0  0
   -6.4850   -0.6820  -17.7320 N   0  0  0  0  0  0  0  0  0  0  0  0
   -7.1520   -1.2460  -18.7540 C   0  0  0  0  0  0  0  0  0  0  0  0
   -9.1640   -1.0170  -23.0670 N   0  0  0  0  0  0  0  0  0  0  0  0
   -8.9420   -2.2560  -23.6870 C   0  0  0  0  0  0  0  0  0  0  0  0
   -8.1090   -2.3700  -24.7920 C   0  0  0  0  0  0  0  0  0  0  0  0
   -8.0310   -3.6060  -25.4010 C   0  0  0  0  0  0  0  0  0  0  0  0
   -9.6460   -3.2740  -23.1720 N   0  0  0  0  0  0  0  0  0  0  0  0
   -9.5500   -4.4740  -23.7740 C   0  0  0  0  0  0  0  0  0  0  0  0
   -8.7540   -4.6890  -24.8970 C   0  0  0  0  0  0  0  0  0  0  0  0
   -8.6800   -5.9490  -25.4870 N   0  0  0  0  0  0  0  0  0  0  0  0
   -8.2530   -6.1000  -26.8680 C   0  0  0  0  0  0  0  0  0  0  0  0
   -9.4270   -7.0790  -24.9510 C   0  0  0  0  0  0  0  0  0  0  0  0
   -9.9750   -0.0180  -23.7760 C   0  0  0  0  0  0  0  0  0  0  0  0
  -11.4230   -0.0020  -23.3470 C   0  0  0  0  0  0  0  0  0  0  0  0
  -12.0010   -1.1320  -22.7740 C   0  0  0  0  0  0  0  0  0  0  0  0
  -13.2890   -1.0630  -22.2770 C   0  0  0  0  0  0  0  0  0  0  0  0
  -13.9070   -2.4030  -21.3430 Cl  0  0  0  0  0  0  0  0  0  0  0  0
  -14.0700    0.0590  -22.4420 C   0  0  0  0  0  0  0  0  0  0  0  0
  -13.5020    1.1800  -23.0280 C   0  0  0  0  0  0  0  0  0  0  0  0
  -12.1840    1.1550  -23.4570 C   0  0  0  0  0  0  0  0  0  0  0  0
  2  1  2  0
  3  2  1  0
  4  3  1  0
  5  4  1  0
  6  5  2  0
  7  6  1  0
  8  7  2  0
  9  8  1  0
 10  5  1  0
 10  9  2  0
 11 10  1  0
 12 11  2  0
 13 12  1  0
 13  4  2  0
 14  2  1  0
 15 14  1  0
 16 15  2  0
 17 16  1  0
 18 15  1  0
 19 18  2  0
 20 19  1  0
 20 17  2  0
 21 20  1  0
 22 21  1  0
 23 21  1  0
 24 14  1  0
 25 24  1  0
 26 25  2  0
 27 26  1  0
 28 27  1  0
 29 27  2  0
 30 29  1  0
 31 30  2  0
 31 25  1  0
M  END
$$$$

     RDKit          3D

 26 29  0  0  0  0  0  0  0  0999 V2000
   -5.0870   -3.6160  -21.1430 O   0  0  0  0  0  0  0  0  0  0  0  0
   -5.6840   -2.5530  -21.1410 C   0  0  0  0  0  0  0  0  0  0  0  0
   -5.4090   -1.5340  -20.0740 C   0  0  0  0  0  0  0  0  0  0  0  0
   -4.4790   -0.4750  -20.2870 C   0  0  0  0  0  0  0  0  0  0  0  0
   -3.7940   -0.2440  -21.5100 C   0  0  0  0  0  0  0  0  0  0  0  0
   -2.8820    0.7660  -21.6280 C   0  0  0  0  0  0  0  0  0  0  0  0
   -2.6090    1.5980  -20.5540 C   0  0  0  0  0  0  0  0  0  0  0  0
   -3.2620    1.4390  -19.3660 C   0  0  0  0  0  0  0  0  0  0  0  0
   -4.2170    0.4030  -19.1990 C   0  0  0  0  0  0  0  0  0  0  0  0
   -4.9250    0.1840  -17.9900 C   0  0  0  0  0  0  0  0  0  0  0  0
   -5.8040   -0.7980  -17.8030 N   0  0  0  0  0  0  0  0  0  0  0  0
   -6.0210   -1.6370  -18.8250 C   0  0  0  0  0  0  0  0  0  0  0  0
   -6.5790   -2.2270  -22.0980 N   0  0  0  0  0  0  0  0  0  0  0  0
   -7.1080   -3.1690  -23.0870 C   0  0  0  0  0  0  0  0  0  0  0  0
   -8.6190   -3.2820  -22.9430 C   0  0  0  0  0  0  0  0  0  0  0  0
   -7.1540   -0.8900  -22.2260 C   0  0  0  0  0  0  0  0  0  0  0  0
   -8.6570   -0.8700  -22.2750 C   0  0  0  0  0  0  0  0  0  0  0  0
   -9.2640    0.0850  -21.8030 O   0  0  0  0  0  0  0  0  0  0  0  0
   -9.2710   -1.9650  -22.8130 N   0  0  0  0  0  0  0  0  0  0  0  0
  -10.6490   -1.9430  -23.1590 C   0  0  0  0  0  0  0  0  0  0  0  0
  -11.5240   -2.7420  -22.4360 C   0  0  0  0  0  0  0  0  0  0  0  0
  -12.8770   -2.6090  -22.6490 C   0  0  0  0  0  0  0  0  0  0  0  0
  -13.9720   -3.4790  -21.6200 Cl  0  0  0  0  0  0  0  0  0  0  0  0
  -11.1330   -1.0640  -24.1270 C   0  0  0  0  0  0  0  0  0  0  0  0
  -12.5010   -0.9630  -24.3370 C   0  0  0  0  0  0  0  0  0  0  0  0
  -13.3850   -1.7340  -23.5940 C   0  0  0  0  0  0  0  0  0  0  0  0
  2  1  2  0
  3  2  1  0
  4  3  1  0
  5  4  2  0
  6  5  1  0
  7  6  2  0
  8  7  1  0
  9  8  2  0
  9  4  1  0
 10  9  1  0
 11 10  2  0
 12 11  1  0
 12  3  2  0
 13  2  1  0
 14 13  1  0
 15 14  1  0
 16 13  1  0
 17 16  1  0
 18 17  2  0
 19 17  1  0
 19 15  1  0
 20 19  1  0
 21 20  2  0
 22 21  1  0
 23 22  1  0
 24 20  1  0
 25 24  2  0
 26 25  1  0
 26 22  2  0
M  END
$$$$

     RDKit          3D

 30 33  0  0  0  0  0  0  0  0999 V2000
  -13.8400   -2.7610  -21.5310 Cl  0  0  0  0  0  0  0  0  0  0  0  0
  -12.6900   -1.9550  -22.5570 C   0  0  0  0  0  0  0  0  0  0  0  0
  -11.3540   -2.2800  -22.4490 C   0  0  0  0  0  0  0  0  0  0  0  0
  -13.1290   -0.9910  -23.4370 C   0  0  0  0  0  0  0  0  0  0  0  0
  -12.2050   -0.3420  -24.2370 C   0  0  0  0  0  0  0  0  0  0  0  0
  -10.8420   -0.6270  -24.1390 C   0  0  0  0  0  0  0  0  0  0  0  0
   -9.8580    0.0960  -25.0330 C   0  0  0  0  0  0  0  0  0  0  0  0
   -8.4760   -0.0160  -24.5480 N   0  0  2  0  0  0  0  0  0  0  0  0
   -7.4820    0.6800  -25.3940 C   0  0  1  0  0  0  0  0  0  0  0  0
   -7.7120    0.8930  -26.8840 C   0  0  0  0  0  0  0  0  0  0  0  0
   -6.8460    1.9070  -24.7270 C   0  0  0  0  0  0  0  0  0  0  0  0
   -5.9840    2.5630  -25.3110 O   0  0  0  0  0  0  0  0  0  0  0  0
   -7.2780    2.2030  -23.5040 N   0  0  0  0  0  0  0  0  0  0  0  0
   -6.7540    3.3280  -22.7520 C   0  0  0  0  0  0  0  0  0  0  0  0
  -10.4130   -1.5980  -23.2190 C   0  0  0  0  0  0  0  0  0  0  0  0
   -8.9340   -1.8590  -23.0210 C   0  0  1  0  0  0  0  0  0  0  0  0
   -8.1550   -1.4180  -24.2600 C   0  0  0  0  0  0  0  0  0  0  0  0
   -8.4570   -1.0730  -21.7970 C   0  0  0  0  0  0  0  0  0  0  0  0
   -9.0230   -0.0480  -21.4150 O   0  0  0  0  0  0  0  0  0  0  0  0
   -7.3130   -1.5360  -21.2390 N   0  0  0  0  0  0  0  0  0  0  0  0
   -6.5910   -0.9750  -20.1650 C   0  0  0  0  0  0  0  0  0  0  0  0
   -5.4300   -0.1860  -20.4500 C   0  0  0  0  0  0  0  0  0  0  0  0
   -4.9160    0.0160  -21.7590 C   0  0  0  0  0  0  0  0  0  0  0  0
   -3.8350    0.8270  -21.9710 C   0  0  0  0  0  0  0  0  0  0  0  0
   -3.2130    1.4690  -20.9100 C   0  0  0  0  0  0  0  0  0  0  0  0
   -3.6660    1.3030  -19.6320 C   0  0  0  0  0  0  0  0  0  0  0  0
   -4.7850    0.4710  -19.3650 C   0  0  0  0  0  0  0  0  0  0  0  0
   -5.3160    0.2820  -18.0650 C   0  0  0  0  0  0  0  0  0  0  0  0
   -6.3850   -0.4560  -17.7980 N   0  0  0  0  0  0  0  0  0  0  0  0
   -6.9950   -1.0610  -18.8290 C   0  0  0  0  0  0  0  0  0  0  0  0
  2  1  1  0
  3  2  2  0
  4  2  1  0
  5  4  2  0
  6  5  1  0
  7  6  1  0
  8  7  1  6
  9  8  1  0
  9 10  1  6
 11  9  1  0
 12 11  2  0
 13 11  1  0
 14 13  1  0
 15  3  1  0
 15  6  2  0
 16 15  1  0
 17 16  1  0
 17  8  1  0
 16 18  1  1
 19 18  2  0
 20 18  1  0
 21 20  1  0
 22 21  1  0
 23 22  2  0
 24 23  1  0
 25 24  2  0
 26 25  1  0
 27 26  2  0
 27 22  1  0
 28 27  1  0
 29 28  2  0
 30 29  1  0
 30 21  2  0
M  CHG  1   8   1
M  END
$$$$

     RDKit          3D

 33 37  0  0  0  0  0  0  0  0999 V2000
  -13.8750   -2.7510  -21.5360 Cl  0  0  0  0  0  0  0  0  0  0  0  0
  -12.6710   -2.0030  -22.5480 C   0  0  0  0  0  0  0  0  0  0  0  0
  -11.3430   -2.3530  -22.3870 C   0  0  0  0  0  0  0  0  0  0  0  0
  -13.0600   -1.0550  -23.4630 C   0  0  0  0  0  0  0  0  0  0  0  0
  -12.1000   -0.4530  -24.2520 C   0  0  0  0  0  0  0  0  0  0  0  0
  -10.7480   -0.7660  -24.1110 C   0  0  0  0  0  0  0  0  0  0  0  0
   -9.7690   -0.0520  -25.0190 C   0  0  0  0  0  0  0  0  0  0  0  0
   -8.3670   -0.4110  -24.7740 N   0  0  0  0  0  0  0  0  0  0  0  0
   -7.1120    0.4770  -25.2110 S   0  0  2  0  0  0  0  0  0  0  0  0
   -7.1120    0.5590  -26.6300 O   0  0  0  0  0  0  0  0  0  0  0  0
   -5.9710    0.0000  -24.5050 O   0  0  0  0  0  0  0  0  0  0  0  0
   -7.5690    1.9070  -24.6530 N   0  0  0  0  0  0  0  0  0  0  0  0
   -7.6750    3.0940  -25.5270 C   0  0  0  0  0  0  0  0  0  0  0  0
   -7.0940    4.2390  -24.6980 C   0  0  0  0  0  0  0  0  0  0  0  0
   -7.2830    2.3500  -23.2710 C   0  0  0  0  0  0  0  0  0  0  0  0
   -6.3780    3.5480  -23.5150 C   0  0  2  0  0  0  0  0  0  0  0  0
   -6.2040    4.4370  -22.2890 C   0  0  0  0  0  0  0  0  0  0  0  0
  -10.3650   -1.7140  -23.1500 C   0  0  0  0  0  0  0  0  0  0  0  0
   -8.8930   -1.9940  -22.9170 C   0  0  1  0  0  0  0  0  0  0  0  0
   -8.1050   -1.7450  -24.2000 C   0  0  0  0  0  0  0  0  0  0  0  0
   -8.3610   -1.1360  -21.7660 C   0  0  0  0  0  0  0  0  0  0  0  0
   -8.9130   -0.0910  -21.4200 O   0  0  0  0  0  0  0  0  0  0  0  0
   -7.2380   -1.6150  -21.1710 N   0  0  0  0  0  0  0  0  0  0  0  0
   -6.5210   -1.0390  -20.0980 C   0  0  0  0  0  0  0  0  0  0  0  0
   -5.4170   -0.1770  -20.3930 C   0  0  0  0  0  0  0  0  0  0  0  0
   -4.9130    0.0460  -21.7010 C   0  0  0  0  0  0  0  0  0  0  0  0
   -3.8410    0.8650  -21.9150 C   0  0  0  0  0  0  0  0  0  0  0  0
   -3.2250    1.5160  -20.8510 C   0  0  0  0  0  0  0  0  0  0  0  0
   -3.6730    1.3410  -19.5740 C   0  0  0  0  0  0  0  0  0  0  0  0
   -4.7700    0.4820  -19.3060 C   0  0  0  0  0  0  0  0  0  0  0  0
   -5.2430    0.2140  -17.9970 C   0  0  0  0  0  0  0  0  0  0  0  0
   -6.2570   -0.5970  -17.7220 N   0  0  0  0  0  0  0  0  0  0  0  0
   -6.8690   -1.1940  -18.7540 C   0  0  0  0  0  0  0  0  0  0  0  0
  2  1  1  0
  3  2  2  0
  4  2  1  0
  5  4  2  0
  6  5  1  0
  7  6  1  0
  8  7  1  0
  9  8  1  6
 10  9  2  0
 11  9  2  0
 12  9  1  0
 13 12  1  0
 14 13  1  0
 15 12  1  0
 16 15  1  0
 16 14  1  0
 16 17  1  1
 18  3  1  0
 18  6  2  0
 19 18  1  0
 20 19  1  0
 20  8  1  0
 19 21  1  1
 22 21  2  0
 23 21  1  0
 24 23  1  0
 25 24  1  0
 26 25  2  0
 27 26  1  0
 28 27  2  0
 29 28  1  0
 30 29  2  0
 30 25  1  0
 31 30  1  0
 32 31  2  0
 33 32  1  0
 33 24  2  0
M  END
$$$$

     RDKit          3D

 18 19  0  0  0  0  0  0  0  0999 V2000
  -13.9060   -2.7400  -21.8860 Cl  0  0  0  0  0  0  0  0  0  0  0  0
  -12.5830   -1.9140  -22.6490 C   0  0  0  0  0  0  0  0  0  0  0  0
  -12.8460   -0.8370  -23.4750 C   0  0  0  0  0  0  0  0  0  0  0  0
  -11.7900   -0.2320  -24.1380 C   0  0  0  0  0  0  0  0  0  0  0  0
  -10.4920   -0.6720  -23.9360 C   0  0  0  0  0  0  0  0  0  0  0  0
  -11.3000   -2.3720  -22.4330 C   0  0  0  0  0  0  0  0  0  0  0  0
  -10.2420   -1.7120  -23.0490 C   0  0  0  0  0  0  0  0  0  0  0  0
   -8.9410   -1.9360  -22.5500 N   0  0  0  0  0  0  0  0  0  0  0  0
   -8.3380   -1.1410  -21.6150 C   0  0  0  0  0  0  0  0  0  0  0  0
   -8.8400   -0.1020  -21.1930 O   0  0  0  0  0  0  0  0  0  0  0  0
   -7.1400   -1.6270  -21.1720 N   0  0  0  0  0  0  0  0  0  0  0  0
   -6.3890   -1.0460  -20.1280 C   0  0  0  0  0  0  0  0  0  0  0  0
   -6.8740   -1.1050  -18.8240 C   0  0  0  0  0  0  0  0  0  0  0  0
   -6.3140   -0.4640  -17.7960 N   0  0  0  0  0  0  0  0  0  0  0  0
   -5.2140    0.2510  -18.0340 C   0  0  0  0  0  0  0  0  0  0  0  0
   -5.2440   -0.2930  -20.3600 C   0  0  0  0  0  0  0  0  0  0  0  0
   -4.6310    0.3810  -19.3030 C   0  0  0  0  0  0  0  0  0  0  0  0
   -3.5150    1.1510  -19.5160 N   0  0  0  0  0  0  0  0  0  0  0  0
  2  1  1  0
  3  2  2  0
  4  3  1  0
  5  4  2  0
  6  2  1  0
  7  6  2  0
  7  5  1  0
  8  7  1  0
  9  8  1  0
 10  9  2  0
 11  9  1  0
 12 11  1  0
 13 12  2  0
 14 13  1  0
 15 14  2  0
 16 12  1  0
 17 16  2  0
 17 15  1  0
 18 17  1  0
M  END
$$$$

     RDKit          3D

 21 23  0  0  0  0  0  0  0  0999 V2000
   -9.1240   -0.2710  -21.2070 O   0  0  0  0  0  0  0  0  0  0  0  0
   -8.5800   -1.3250  -21.5340 C   0  0  0  0  0  0  0  0  0  0  0  0
   -9.2330   -2.3010  -22.4950 C   0  0  0  0  0  0  0  0  0  0  0  0
  -10.6630   -1.9550  -22.8320 C   0  0  0  0  0  0  0  0  0  0  0  0
  -11.7340   -2.5380  -22.1630 C   0  0  0  0  0  0  0  0  0  0  0  0
  -13.0190   -2.1320  -22.4840 C   0  0  0  0  0  0  0  0  0  0  0  0
  -13.2170   -1.1810  -23.4740 C   0  0  0  0  0  0  0  0  0  0  0  0
  -10.8330   -1.0400  -23.8040 N   0  0  0  0  0  0  0  0  0  0  0  0
  -12.0820   -0.7050  -24.1040 C   0  0  0  0  0  0  0  0  0  0  0  0
  -12.2610    0.3420  -25.4810 Cl  0  0  0  0  0  0  0  0  0  0  0  0
   -7.3780   -1.7220  -21.0660 N   0  0  0  0  0  0  0  0  0  0  0  0
   -6.6220   -1.1180  -20.0470 C   0  0  0  0  0  0  0  0  0  0  0  0
   -5.5140   -0.2900  -20.4030 C   0  0  0  0  0  0  0  0  0  0  0  0
   -5.0510   -0.1130  -21.7320 C   0  0  0  0  0  0  0  0  0  0  0  0
   -4.0080    0.7270  -22.0060 C   0  0  0  0  0  0  0  0  0  0  0  0
   -3.3690    1.4170  -20.9870 C   0  0  0  0  0  0  0  0  0  0  0  0
   -3.7660    1.2710  -19.6890 C   0  0  0  0  0  0  0  0  0  0  0  0
   -4.8480    0.4150  -19.3610 C   0  0  0  0  0  0  0  0  0  0  0  0
   -5.3180    0.2330  -18.0390 C   0  0  0  0  0  0  0  0  0  0  0  0
   -6.3470   -0.5390  -17.7120 N   0  0  0  0  0  0  0  0  0  0  0  0
   -6.9710   -1.1950  -18.7010 C   0  0  0  0  0  0  0  0  0  0  0  0
  2  1  2  0
  3  2  1  0
  4  3  1  0
  5  4  2  0
  6  5  1  0
  7  6  2  0
  8  4  1  0
  9  7  1  0
  9  8  2  0
 10  9  1  0
 11  2  1  0
 12 11  1  0
 13 12  1  0
 14 13  2  0
 15 14  1  0
 16 15  2  0
 17 16  1  0
 18 13  1  0
 18 17  2  0
 19 18  1  0
 20 19  2  0
 21 20  1  0
 21 12  2  0
M  END
$$$$

     RDKit          3D

 18 19  0  0  0  0  0  0  0  0999 V2000
   -6.1010   -6.2860  -21.9180 N   0  0  0  0  0  0  0  0  0  0  0  0
   -7.3740   -4.7110  -20.5270 C   0  0  0  0  0  0  0  0  0  0  0  0
   -5.3330   -5.7630  -19.8780 O   0  0  0  0  0  0  0  0  0  0  0  0
   -6.1960   -5.6430  -20.7390 C   0  0  0  0  0  0  0  0  0  0  0  0
   -5.0160   -7.2060  -22.2450 C   0  0  0  0  0  0  0  0  0  0  0  0
   -4.2420   -6.6750  -23.4200 C   0  0  0  0  0  0  0  0  0  0  0  0
   -6.2710   -5.5570  -24.2280 C   0  0  0  0  0  0  0  0  0  0  0  0
   -7.0210   -6.1040  -23.0430 C   0  0  0  0  0  0  0  0  0  0  0  0
   -3.6530   -4.9300  -26.1800 C   0  0  0  0  0  0  0  0  0  0  0  0
   -4.1860   -3.6950  -26.4660 C   0  0  0  0  0  0  0  0  0  0  0  0
   -3.2470   -2.6630  -26.2150 C   0  0  0  0  0  0  0  0  0  0  0  0
   -1.9790   -3.1840  -25.9850 C   0  0  0  0  0  0  0  0  0  0  0  0
   -5.1700   -6.4810  -24.5480 N   0  0  0  0  0  0  0  0  0  0  0  0
   -3.5910   -7.4810  -26.1520 O   0  0  0  0  0  0  0  0  0  0  0  0
   -5.6480   -6.3480  -26.9490 O   0  0  0  0  0  0  0  0  0  0  0  0
   -4.5400   -6.4150  -26.0500 S   0  0  2  0  0  0  0  0  0  0  0  0
   -1.9610   -4.8980  -25.9130 S   0  0  0  0  0  0  0  0  0  0  0  0
   -0.5220   -2.3040  -25.7840 Cl  0  0  0  0  0  0  0  0  0  0  0  0
  4  1  1  0
  4  2  1  0
  4  3  2  0
  5  1  1  0
  6  5  1  0
  8  7  1  0
  8  1  1  0
 10  9  2  0
 11 10  1  0
 12 11  2  0
 13  7  1  0
 13  6  1  0
 16 15  2  0
 16 14  2  0
 16 13  1  1
 16  9  1  0
 17 12  1  0
 17  9  1  0
 18 12  1  0
M  END
$$$$

     RDKit          3D

 18 19  0  0  0  0  0  0  0  0999 V2000
   -4.6330   -5.9040  -26.2480 N   0  0  0  0  0  0  0  0  0  0  0  0
   -6.0830   -6.0700  -26.3590 C   0  0  0  0  0  0  0  0  0  0  0  0
   -3.9910   -6.7570  -25.6570 O   0  0  0  0  0  0  0  0  0  0  0  0
   -6.5650   -6.4980  -27.5890 C   0  0  0  0  0  0  0  0  0  0  0  0
   -5.9160   -4.9330  -20.0140 C   0  0  0  0  0  0  0  0  0  0  0  0
   -6.5810   -3.8380  -19.2350 C   0  0  0  0  0  0  0  0  0  0  0  0
   -7.9220   -6.6760  -27.7680 C   0  0  0  0  0  0  0  0  0  0  0  0
   -8.8030   -6.4320  -26.7310 C   0  0  0  0  0  0  0  0  0  0  0  0
   -8.3340   -6.0030  -25.5000 C   0  0  0  0  0  0  0  0  0  0  0  0
   -6.9700   -5.8150  -25.2860 C   0  0  0  0  0  0  0  0  0  0  0  0
   -6.9600   -4.1730  -23.3700 C   0  0  0  0  0  0  0  0  0  0  0  0
   -7.4380   -4.4930  -21.9710 C   0  0  0  0  0  0  0  0  0  0  0  0
   -5.9830   -6.4540  -21.9200 C   0  0  0  0  0  0  0  0  0  0  0  0
   -5.4570   -6.0970  -23.2900 C   0  0  0  0  0  0  0  0  0  0  0  0
   -6.4830   -5.3820  -24.0540 N   0  0  0  0  0  0  0  0  0  0  0  0
   -6.4220   -5.2450  -21.2260 N   0  0  0  0  0  0  0  0  0  0  0  0
   -4.1190   -4.9390  -26.7900 O   0  0  0  0  0  0  0  0  0  0  0  0
   -4.9880   -5.5480  -19.5120 O   0  0  0  0  0  0  0  0  0  0  0  0
  2  1  1  0
  3  1  2  0
  4  2  2  0
  6  5  1  0
  7  4  1  0
  8  7  2  0
  9  8  1  0
 10  9  2  0
 10  2  1  0
 12 11  1  0
 14 13  1  0
 15 14  1  0
 15 10  1  0
 15 11  1  0
 16 13  1  0
 16 12  1  0
 16  5  1  0
 17  1  1  0
 18  5  2  0
M  CHG  2   1   1  17  -1
M  END
$$$$

     RDKit          3D

 27 29  0  0  0  0  0  0  0  0999 V2000
   -8.8510   -0.2670  -21.5560 O   0  0  0  0  0  0  0  0  0  0  0  0
   -8.2970   -1.3410  -21.7780 C   0  0  0  0  0  0  0  0  0  0  0  0
   -7.1680   -1.7430  -21.1480 N   0  0  0  0  0  0  0  0  0  0  0  0
   -6.4910   -1.1100  -20.0820 C   0  0  0  0  0  0  0  0  0  0  0  0
   -5.3960   -0.2410  -20.3820 C   0  0  0  0  0  0  0  0  0  0  0  0
   -4.9010   -0.0160  -21.6930 C   0  0  0  0  0  0  0  0  0  0  0  0
   -3.8600    0.8410  -21.9150 C   0  0  0  0  0  0  0  0  0  0  0  0
   -3.2640    1.5160  -20.8590 C   0  0  0  0  0  0  0  0  0  0  0  0
   -3.6980    1.3310  -19.5790 C   0  0  0  0  0  0  0  0  0  0  0  0
   -4.7690    0.4470  -19.3020 C   0  0  0  0  0  0  0  0  0  0  0  0
   -5.2600    0.2040  -17.9960 C   0  0  0  0  0  0  0  0  0  0  0  0
   -6.2710   -0.6090  -17.7170 N   0  0  0  0  0  0  0  0  0  0  0  0
   -6.8590   -1.2410  -18.7420 C   0  0  0  0  0  0  0  0  0  0  0  0
   -8.8490   -2.3340  -22.7830 C   0  0  0  0  0  0  0  0  0  0  0  0
  -10.2540   -1.9360  -23.1850 C   0  0  0  0  0  0  0  0  0  0  0  0
  -11.3190   -2.3530  -22.3870 C   0  0  0  0  0  0  0  0  0  0  0  0
  -12.6050   -1.9400  -22.6800 C   0  0  0  0  0  0  0  0  0  0  0  0
  -13.9080   -2.4060  -21.6210 Cl  0  0  0  0  0  0  0  0  0  0  0  0
  -12.8740   -1.1420  -23.7650 C   0  0  0  0  0  0  0  0  0  0  0  0
  -11.8300   -0.7470  -24.5790 C   0  0  0  0  0  0  0  0  0  0  0  0
  -10.5160   -1.1290  -24.3100 C   0  0  0  0  0  0  0  0  0  0  0  0
   -9.3940   -0.6810  -25.2220 C   0  0  0  0  0  0  0  0  0  0  0  0
   -9.8550    0.1770  -26.3260 N   0  0  0  0  0  0  0  0  0  0  0  0
   -9.7110   -0.2030  -27.8950 S   0  0  1  0  0  0  0  0  0  0  0  0
  -11.0210   -0.1280  -28.4630 O   0  0  0  0  0  0  0  0  0  0  0  0
   -8.6820    0.6330  -28.4310 O   0  0  0  0  0  0  0  0  0  0  0  0
   -9.1670   -1.8650  -27.9940 C   0  0  0  0  0  0  0  0  0  0  0  0
  2  1  2  0
  3  2  1  0
  4  3  1  0
  5  4  1  0
  6  5  2  0
  7  6  1  0
  8  7  2  0
  9  8  1  0
 10  9  2  0
 10  5  1  0
 11 10  1  0
 12 11  2  0
 13 12  1  0
 13  4  2  0
 14  2  1  0
 15 14  1  0
 16 15  2  0
 17 16  1  0
 18 17  1  0
 19 17  2  0
 20 19  1  0
 21 20  2  0
 21 15  1  0
 22 21  1  0
 23 22  1  0
 24 23  1  0
 25 24  2  0
 26 24  2  0
 24 27  1  1
M  END
$$$$

     RDKit          3D

 35 38  0  0  0  0  0  0  0  0999 V2000
  -13.4970   -2.5320  -21.8270 Cl  0  0  0  0  0  0  0  0  0  0  0  0
  -12.2370   -1.8290  -22.7930 C   0  0  0  0  0  0  0  0  0  0  0  0
  -12.5410   -1.0080  -23.8740 C   0  0  0  0  0  0  0  0  0  0  0  0
  -14.1780   -0.5560  -24.2270 Cl  0  0  0  0  0  0  0  0  0  0  0  0
  -11.5310   -0.5260  -24.6770 C   0  0  0  0  0  0  0  0  0  0  0  0
  -10.2160   -0.8360  -24.3890 C   0  0  0  0  0  0  0  0  0  0  0  0
  -10.9180   -2.1290  -22.4920 C   0  0  0  0  0  0  0  0  0  0  0  0
   -9.8900   -1.6260  -23.2900 C   0  0  0  0  0  0  0  0  0  0  0  0
   -8.4190   -1.9090  -22.9470 C   0  0  1  0  0  0  0  0  0  0  0  0
   -8.2690   -3.3820  -22.5530 C   0  0  0  0  0  0  0  0  0  0  0  0
   -7.5730   -1.6570  -24.1240 N   0  0  0  0  0  0  0  0  0  0  0  0
   -7.1730   -0.4780  -24.6310 C   0  0  0  0  0  0  0  0  0  0  0  0
   -7.2170    0.5840  -24.0130 O   0  0  0  0  0  0  0  0  0  0  0  0
   -6.7260   -0.4900  -26.0890 C   0  0  2  0  0  0  0  0  0  0  0  0
   -5.3350   -0.8510  -26.1630 O   0  0  0  0  0  0  0  0  0  0  0  0
   -4.8610   -0.8480  -27.5230 C   0  0  0  0  0  0  0  0  0  0  0  0
   -5.0430    0.5180  -28.1460 C   0  0  0  0  0  0  0  0  0  0  0  0
   -6.9460    0.8760  -26.7260 C   0  0  0  0  0  0  0  0  0  0  0  0
   -6.4700    0.8840  -28.1190 N   0  0  1  0  0  0  0  0  0  0  0  0
   -6.9290    2.0290  -28.9300 C   0  0  1  0  0  0  0  0  0  0  0  0
   -6.4310    3.3740  -28.4210 C   0  0  0  0  0  0  0  0  0  0  0  0
   -6.6320    1.8380  -30.4090 C   0  0  0  0  0  0  0  0  0  0  0  0
   -8.0010   -0.9410  -21.7910 C   0  0  0  0  0  0  0  0  0  0  0  0
   -8.3120    0.2440  -21.8130 O   0  0  0  0  0  0  0  0  0  0  0  0
   -7.3540   -1.5040  -20.7520 N   0  0  0  0  0  0  0  0  0  0  0  0
   -6.4130   -1.0390  -19.8070 C   0  0  0  0  0  0  0  0  0  0  0  0
   -5.3770   -0.1110  -20.1610 C   0  0  0  0  0  0  0  0  0  0  0  0
   -4.9240    0.1010  -21.4880 C   0  0  0  0  0  0  0  0  0  0  0  0
   -3.8480    0.9030  -21.7480 C   0  0  0  0  0  0  0  0  0  0  0  0
   -3.1760    1.5400  -20.7180 C   0  0  0  0  0  0  0  0  0  0  0  0
   -3.5760    1.3780  -19.4240 C   0  0  0  0  0  0  0  0  0  0  0  0
   -4.6790    0.5450  -19.1070 C   0  0  0  0  0  0  0  0  0  0  0  0
   -5.0660    0.2570  -17.7830 C   0  0  0  0  0  0  0  0  0  0  0  0
   -6.0090   -0.6080  -17.4530 N   0  0  0  0  0  0  0  0  0  0  0  0
   -6.6420   -1.2390  -18.4480 C   0  0  0  0  0  0  0  0  0  0  0  0
  2  1  1  0
  3  2  2  0
  4  3  1  0
  5  3  1  0
  6  5  2  0
  7  2  1  0
  8  7  2  0
  8  6  1  0
  9  8  1  0
  9 10  1  1
 11  9  1  0
 12 11  1  0
 13 12  2  0
 14 12  1  1
 15 14  1  0
 16 15  1  0
 17 16  1  0
 18 14  1  0
 19 18  1  1
 19 17  1  0
 20 19  1  0
 20 21  1  1
 22 20  1  0
 23  9  1  0
 24 23  2  0
 25 23  1  0
 26 25  1  0
 27 26  1  0
 28 27  2  0
 29 28  1  0
 30 29  2  0
 31 30  1  0
 32 31  2  0
 32 27  1  0
 33 32  1  0
 34 33  2  0
 35 34  1  0
 35 26  2  0
M  CHG  1  19   1
M  END
$$$$

     RDKit          3D

 28 31  0  0  0  0  0  0  0  0999 V2000
  -13.9210   -2.7350  -21.4420 Cl  0  0  0  0  0  0  0  0  0  0  0  0
  -12.7650   -1.9620  -22.4950 C   0  0  0  0  0  0  0  0  0  0  0  0
  -13.2020   -1.0130  -23.3960 C   0  0  0  0  0  0  0  0  0  0  0  0
  -12.2780   -0.3810  -24.2120 C   0  0  0  0  0  0  0  0  0  0  0  0
  -11.4270   -2.2890  -22.3780 C   0  0  0  0  0  0  0  0  0  0  0  0
  -10.4820   -1.6360  -23.1690 C   0  0  0  0  0  0  0  0  0  0  0  0
  -10.9180   -0.6820  -24.1060 C   0  0  0  0  0  0  0  0  0  0  0  0
  -10.0140   -0.0320  -24.9270 N   0  0  0  0  0  0  0  0  0  0  0  0
   -8.5700   -0.1540  -24.7570 C   0  0  0  0  0  0  0  0  0  0  0  0
   -8.2120   -1.5460  -24.2720 C   0  0  0  0  0  0  0  0  0  0  0  0
   -8.9980   -1.9010  -22.9910 C   0  0  1  0  0  0  0  0  0  0  0  0
   -8.4950   -1.0830  -21.8000 C   0  0  0  0  0  0  0  0  0  0  0  0
   -9.0630   -0.0550  -21.4260 O   0  0  0  0  0  0  0  0  0  0  0  0
   -7.3670   -1.5650  -21.2180 N   0  0  0  0  0  0  0  0  0  0  0  0
   -6.6450   -1.0090  -20.1360 C   0  0  0  0  0  0  0  0  0  0  0  0
   -6.8950   -1.3140  -18.7970 C   0  0  0  0  0  0  0  0  0  0  0  0
   -6.2540   -0.7740  -17.7480 N   0  0  0  0  0  0  0  0  0  0  0  0
   -5.3010    0.1140  -18.0050 C   0  0  0  0  0  0  0  0  0  0  0  0
   -5.6280   -0.0410  -20.4140 C   0  0  0  0  0  0  0  0  0  0  0  0
   -4.9340    0.5330  -19.3100 C   0  0  0  0  0  0  0  0  0  0  0  0
   -3.9380    1.5090  -19.5600 C   0  0  0  0  0  0  0  0  0  0  0  0
   -3.6570    1.9100  -20.8320 C   0  0  0  0  0  0  0  0  0  0  0  0
   -5.3000    0.4100  -21.7190 C   0  0  0  0  0  0  0  0  0  0  0  0
   -4.3390    1.3900  -21.9340 C   0  0  0  0  0  0  0  0  0  0  0  0
   -4.1190    1.9670  -23.3350 C   0  0  2  0  0  0  0  0  0  0  0  0
   -4.6830    1.1040  -24.3450 O   0  0  0  0  0  0  0  0  0  0  0  0
   -2.6310    2.1020  -23.6440 C   0  0  0  0  0  0  0  0  0  0  0  0
   -4.8140    3.3160  -23.4740 C   0  0  0  0  0  0  0  0  0  0  0  0
  2  1  1  0
  3  2  2  0
  4  3  1  0
  5  2  1  0
  6  5  2  0
  7  4  2  0
  7  6  1  0
  8  7  1  0
  9  8  1  0
 10  9  1  0
 11 10  1  0
 11  6  1  0
 11 12  1  1
 13 12  2  0
 14 12  1  0
 15 14  1  0
 16 15  2  0
 17 16  1  0
 18 17  2  0
 19 15  1  0
 20 19  2  0
 20 18  1  0
 21 20  1  0
 22 21  2  0
 23 19  1  0
 24 23  2  0
 24 22  1  0
 25 24  1  0
 26 25  1  0
 25 27  1  6
 28 25  1  0
M  END
$$$$

     RDKit          3D

 23 26  0  0  0  0  0  0  0  0999 V2000
   -9.0920    0.3570  -21.3930 O   0  0  0  0  0  0  0  0  0  0  0  0
   -8.6530   -0.7170  -21.7770 C   0  0  0  0  0  0  0  0  0  0  0  0
   -9.2100   -1.5910  -22.8960 C   0  0  2  0  0  0  0  0  0  0  0  0
  -10.7170   -1.5070  -23.0830 C   0  0  0  0  0  0  0  0  0  0  0  0
  -11.2610   -0.6240  -24.0060 C   0  0  0  0  0  0  0  0  0  0  0  0
  -12.6370   -0.4640  -24.1110 C   0  0  0  0  0  0  0  0  0  0  0  0
  -13.4880   -1.1830  -23.2860 C   0  0  0  0  0  0  0  0  0  0  0  0
  -11.5720   -2.2560  -22.2790 C   0  0  0  0  0  0  0  0  0  0  0  0
  -12.9370   -2.0690  -22.3760 C   0  0  0  0  0  0  0  0  0  0  0  0
  -13.9850   -2.9100  -21.2640 Cl  0  0  0  0  0  0  0  0  0  0  0  0
   -7.5530   -1.3520  -21.2720 N   0  0  0  0  0  0  0  0  0  0  0  0
   -7.3110   -2.6610  -21.8990 C   0  0  0  0  0  0  0  0  0  0  0  0
   -8.6660   -2.9920  -22.5210 C   0  0  0  0  0  0  0  0  0  0  0  0
   -6.7100   -0.8410  -20.2340 C   0  0  0  0  0  0  0  0  0  0  0  0
   -5.5760   -0.0160  -20.5090 C   0  0  0  0  0  0  0  0  0  0  0  0
   -5.1530    0.3440  -21.8170 C   0  0  0  0  0  0  0  0  0  0  0  0
   -4.0820    1.1740  -22.0040 C   0  0  0  0  0  0  0  0  0  0  0  0
   -3.3860    1.6910  -20.9190 C   0  0  0  0  0  0  0  0  0  0  0  0
   -3.7580    1.3800  -19.6420 C   0  0  0  0  0  0  0  0  0  0  0  0
   -4.8570    0.5180  -19.4000 C   0  0  0  0  0  0  0  0  0  0  0  0
   -5.3090    0.1840  -18.1000 C   0  0  0  0  0  0  0  0  0  0  0  0
   -6.3630   -0.5760  -17.8490 N   0  0  0  0  0  0  0  0  0  0  0  0
   -7.0320   -1.0680  -18.9000 C   0  0  0  0  0  0  0  0  0  0  0  0
  2  1  2  0
  3  2  1  0
  3  4  1  1
  5  4  2  0
  6  5  1  0
  7  6  2  0
  8  4  1  0
  9  8  2  0
  9  7  1  0
 10  9  1  0
 11  2  1  0
 12 11  1  0
 13 12  1  0
 13  3  1  0
 14 11  1  0
 15 14  1  0
 16 15  2  0
 17 16  1  0
 18 17  2  0
 19 18  1  0
 20 15  1  0
 20 19  2  0
 21 20  1  0
 22 21  2  0
 23 22  1  0
 23 14  2  0
M  END
$$$$

     RDKit          3D

 13 14  0  0  0  0  0  0  0  0999 V2000
   -4.7440    7.2260  -11.1280 N   0  0  0  0  0  0  0  0  0  0  0  0
   -2.1890    9.1820   -9.9430 C   0  0  0  0  0  0  0  0  0  0  0  0
   -1.8050    8.4770  -11.0820 O   0  0  0  0  0  0  0  0  0  0  0  0
   -3.5470    8.6500   -9.4540 C   0  0  2  0  0  0  0  0  0  0  0  0
   -3.3440    7.3130   -8.7180 C   0  0  0  0  0  0  0  0  0  0  0  0
   -4.4960    8.4920  -10.6250 C   0  0  0  0  0  0  0  0  0  0  0  0
   -5.6280    7.1350  -12.1580 C   0  0  0  0  0  0  0  0  0  0  0  0
   -6.2810    8.2460  -12.7210 C   0  0  0  0  0  0  0  0  0  0  0  0
   -6.0040    9.5100  -12.2130 C   0  0  0  0  0  0  0  0  0  0  0  0
   -5.1100    9.6470  -11.1660 C   0  0  0  0  0  0  0  0  0  0  0  0
   -4.1280    9.5680   -8.3720 C   0  0  0  0  0  0  0  0  0  0  0  0
   -3.6400    9.0260   -7.0270 C   0  0  0  0  0  0  0  0  0  0  0  0
   -2.9070    7.7250   -7.3140 C   0  0  0  0  0  0  0  0  0  0  0  0
  3  2  1  0
  4  2  1  6
  5  4  1  0
  6  1  2  0
  6  4  1  0
  7  1  1  0
  8  7  2  0
  9  8  1  0
 10  9  2  0
 10  6  1  0
 11  4  1  0
 12 11  1  0
 13 12  1  0
 13  5  1  0
M  END
$$$$

     RDKit          3D

 27 30  0  0  0  0  0  0  0  0999 V2000
   -9.1800    0.0840  -21.4220 O   0  0  0  0  0  0  0  0  0  0  0  0
   -8.6850   -0.9660  -21.8180 C   0  0  0  0  0  0  0  0  0  0  0  0
   -9.2700   -1.7740  -23.0110 C   0  0  1  0  0  0  0  0  0  0  0  0
  -10.7750   -1.6330  -23.0120 C   0  0  0  0  0  0  0  0  0  0  0  0
  -11.5540   -2.3020  -22.0720 C   0  0  0  0  0  0  0  0  0  0  0  0
  -12.9230   -2.2420  -22.1770 C   0  0  0  0  0  0  0  0  0  0  0  0
  -13.6640   -2.8700  -21.2230 F   0  0  0  0  0  0  0  0  0  0  0  0
  -13.5870   -1.5620  -23.1690 C   0  0  0  0  0  0  0  0  0  0  0  0
  -12.8110   -0.9040  -24.0870 C   0  0  0  0  0  0  0  0  0  0  0  0
  -13.4070   -0.2080  -25.0820 F   0  0  0  0  0  0  0  0  0  0  0  0
  -11.4270   -0.9290  -24.0450 C   0  0  0  0  0  0  0  0  0  0  0  0
  -10.7530   -0.3140  -25.0660 O   0  0  0  0  0  0  0  0  0  0  0  0
   -9.3930    0.0340  -24.7540 C   0  0  0  0  0  0  0  0  0  0  0  0
   -8.6180   -1.1730  -24.2660 C   0  0  0  0  0  0  0  0  0  0  0  0
   -8.8870   -3.1390  -22.7950 O   0  0  0  0  0  0  0  0  0  0  0  0
   -9.2230   -4.0820  -23.8200 C   0  0  0  0  0  0  0  0  0  0  0  0
   -7.5850   -1.5200  -21.2700 N   0  0  0  0  0  0  0  0  0  0  0  0
   -6.8650   -1.0320  -20.1650 C   0  0  0  0  0  0  0  0  0  0  0  0
   -5.7380   -0.1890  -20.4060 C   0  0  0  0  0  0  0  0  0  0  0  0
   -5.2760    0.1620  -21.7020 C   0  0  0  0  0  0  0  0  0  0  0  0
   -4.2140    1.0070  -21.8640 C   0  0  0  0  0  0  0  0  0  0  0  0
   -3.5600    1.5380  -20.7630 C   0  0  0  0  0  0  0  0  0  0  0  0
   -3.9640    1.2290  -19.4960 C   0  0  0  0  0  0  0  0  0  0  0  0
   -5.0620    0.3600  -19.2830 C   0  0  0  0  0  0  0  0  0  0  0  0
   -5.5510    0.0320  -17.9970 C   0  0  0  0  0  0  0  0  0  0  0  0
   -6.5940   -0.7530  -17.7730 N   0  0  0  0  0  0  0  0  0  0  0  0
   -7.2210   -1.2680  -18.8380 C   0  0  0  0  0  0  0  0  0  0  0  0
  2  1  2  0
  3  2  1  0
  4  3  1  0
  5  4  2  0
  6  5  1  0
  7  6  1  0
  8  6  2  0
  9  8  1  0
 10  9  1  0
 11  9  2  0
 11  4  1  0
 12 11  1  0
 13 12  1  0
 14 13  1  0
 14  3  1  0
  3 15  1  1
 16 15  1  0
 17  2  1  0
 18 17  1  0
 19 18  1  0
 20 19  2  0
 21 20  1  0
 22 21  2  0
 23 22  1  0
 24 19  1  0
 24 23  2  0
 25 24  1  0
 26 25  2  0
 27 26  1  0
 27 18  2  0
M  END
$$$$

     RDKit          3D

 33 35  0  0  0  0  0  0  0  0999 V2000
   -8.8190    0.1250  -21.3700 O   0  0  0  0  0  0  0  0  0  0  0  0
   -7.8050   -0.0120  -22.0500 C   0  0  0  0  0  0  0  0  0  0  0  0
   -6.7820   -1.1080  -21.7150 C   0  0  1  0  0  0  0  0  0  0  0  0
   -6.1140   -0.8450  -20.3770 C   0  0  0  0  0  0  0  0  0  0  0  0
   -4.9290   -0.1260  -20.3050 C   0  0  0  0  0  0  0  0  0  0  0  0
   -4.4730    0.3400  -19.0860 C   0  0  0  0  0  0  0  0  0  0  0  0
   -5.2150    0.0520  -17.9580 C   0  0  0  0  0  0  0  0  0  0  0  0
   -6.3490   -0.6580  -17.9850 N   0  0  0  0  0  0  0  0  0  0  0  0
   -6.7660   -1.0980  -19.1780 C   0  0  0  0  0  0  0  0  0  0  0  0
   -7.1400   -2.5240  -22.0130 N   0  0  0  0  0  0  0  0  0  0  0  0
   -8.3820   -2.7250  -22.7130 C   0  0  0  0  0  0  0  0  0  0  0  0
   -8.4000   -2.9040  -24.0930 C   0  0  0  0  0  0  0  0  0  0  0  0
   -9.6070   -3.1140  -24.7360 C   0  0  0  0  0  0  0  0  0  0  0  0
  -10.7780   -3.1220  -23.9840 C   0  0  0  0  0  0  0  0  0  0  0  0
  -12.1690   -3.2850  -24.6160 C   0  0  1  0  0  0  0  0  0  0  0  0
  -12.6920   -1.9600  -25.1610 C   0  0  0  0  0  0  0  0  0  0  0  0
  -12.1950   -4.3630  -25.7020 C   0  0  0  0  0  0  0  0  0  0  0  0
  -10.7760   -2.9500  -22.6520 N   0  0  0  0  0  0  0  0  0  0  0  0
   -9.5980   -2.7670  -22.0360 C   0  0  0  0  0  0  0  0  0  0  0  0
   -6.3380   -3.5720  -21.6590 C   0  0  0  0  0  0  0  0  0  0  0  0
   -5.1990   -3.3980  -21.2680 O   0  0  0  0  0  0  0  0  0  0  0  0
   -6.9180   -4.9680  -21.7010 C   0  0  0  0  0  0  0  0  0  0  0  0
   -6.5970   -5.7600  -20.4370 C   0  0  0  0  0  0  0  0  0  0  0  0
   -7.4240    0.8520  -23.0150 N   0  0  0  0  0  0  0  0  0  0  0  0
   -8.0900    2.0880  -23.2500 C   0  0  0  0  0  0  0  0  0  0  0  0
   -7.5200    3.2680  -22.7550 C   0  0  0  0  0  0  0  0  0  0  0  0
   -6.1650    3.2820  -22.0940 C   0  0  0  0  0  0  0  0  0  0  0  0
   -8.2170    4.4610  -22.9480 C   0  0  0  0  0  0  0  0  0  0  0  0
   -9.4120    4.4890  -23.6440 C   0  0  0  0  0  0  0  0  0  0  0  0
   -9.9550    3.3140  -24.1370 C   0  0  0  0  0  0  0  0  0  0  0  0
   -9.3110    2.0930  -23.9450 C   0  0  0  0  0  0  0  0  0  0  0  0
   -9.9270    0.8260  -24.5010 C   0  0  0  0  0  0  0  0  0  0  0  0
   -9.2200    0.2920  -25.7370 C   0  0  0  0  0  0  0  0  0  0  0  0
  2  1  2  0
  3  2  1  0
  4  3  1  0
  5  4  2  0
  6  5  1  0
  7  6  2  0
  8  7  1  0
  9  8  2  0
  9  4  1  0
  3 10  1  1
 11 10  1  0
 12 11  2  0
 13 12  1  0
 14 13  2  0
 15 14  1  0
 15 16  1  6
 17 15  1  0
 18 14  1  0
 19 18  2  0
 19 11  1  0
 20 10  1  0
 21 20  2  0
 22 20  1  0
 23 22  1  0
 24  2  1  0
 25 24  1  0
 26 25  2  0
 27 26  1  0
 28 26  1  0
 29 28  2  0
 30 29  1  0
 31 30  2  0
 31 25  1  0
 32 31  1  0
 33 32  1  0
M  END
$$$$

     RDKit          3D

 35 39  0  0  0  0  0  0  0  0999 V2000
   -6.1420    6.5720  -23.4180 O   0  0  0  0  0  0  0  0  0  0  0  0
   -7.2760    5.7050  -23.2360 S   0  0  2  0  0  0  0  0  0  0  0  0
   -8.5370    6.2890  -22.8590 O   0  0  0  0  0  0  0  0  0  0  0  0
   -6.8490    4.2380  -22.3090 C   0  0  0  0  0  0  0  0  0  0  0  0
   -7.4490    4.4140  -24.4600 C   0  0  0  0  0  0  0  0  0  0  0  0
   -6.6670    3.3980  -23.5980 C   0  0  1  0  0  0  0  0  0  0  0  0
   -5.1900    3.3040  -23.9890 C   0  0  0  0  0  0  0  0  0  0  0  0
   -7.3130    2.0150  -23.4580 C   0  0  0  0  0  0  0  0  0  0  0  0
   -7.4450    1.0100  -24.9290 S   0  0  1  0  0  0  0  0  0  0  0  0
   -7.9590    1.8180  -25.9890 O   0  0  0  0  0  0  0  0  0  0  0  0
   -6.2100    0.3150  -25.1230 O   0  0  0  0  0  0  0  0  0  0  0  0
   -8.5700   -0.1080  -24.5920 N   0  0  0  0  0  0  0  0  0  0  0  0
   -9.9570    0.1400  -25.0030 C   0  0  0  0  0  0  0  0  0  0  0  0
  -10.9080   -0.6020  -24.0920 C   0  0  0  0  0  0  0  0  0  0  0  0
  -12.2600   -0.2650  -24.1180 C   0  0  0  0  0  0  0  0  0  0  0  0
  -13.1740   -0.9090  -23.3080 C   0  0  0  0  0  0  0  0  0  0  0  0
  -12.7410   -1.9290  -22.4930 C   0  0  0  0  0  0  0  0  0  0  0  0
  -13.8960   -2.7670  -21.4920 Cl  0  0  0  0  0  0  0  0  0  0  0  0
  -11.4090   -2.2970  -22.4420 C   0  0  0  0  0  0  0  0  0  0  0  0
  -10.4720   -1.6150  -23.2210 C   0  0  0  0  0  0  0  0  0  0  0  0
   -8.9890   -1.9180  -23.0790 C   0  0  1  0  0  0  0  0  0  0  0  0
   -8.2370   -1.5230  -24.3500 C   0  0  0  0  0  0  0  0  0  0  0  0
   -8.4490   -1.1060  -21.8960 C   0  0  0  0  0  0  0  0  0  0  0  0
   -9.0290   -0.1020  -21.4710 O   0  0  0  0  0  0  0  0  0  0  0  0
   -7.2890   -1.5770  -21.3660 N   0  0  0  0  0  0  0  0  0  0  0  0
   -6.5770   -1.0700  -20.2460 C   0  0  0  0  0  0  0  0  0  0  0  0
   -5.4100   -0.2650  -20.4630 C   0  0  0  0  0  0  0  0  0  0  0  0
   -4.8250   -0.0470  -21.7390 C   0  0  0  0  0  0  0  0  0  0  0  0
   -3.7230    0.7500  -21.8820 C   0  0  0  0  0  0  0  0  0  0  0  0
   -3.1580    1.3820  -20.7820 C   0  0  0  0  0  0  0  0  0  0  0  0
   -3.6820    1.2040  -19.5330 C   0  0  0  0  0  0  0  0  0  0  0  0
   -4.8070    0.3630  -19.3350 C   0  0  0  0  0  0  0  0  0  0  0  0
   -5.3660    0.1070  -18.0590 C   0  0  0  0  0  0  0  0  0  0  0  0
   -6.4220   -0.6660  -17.8530 N   0  0  0  0  0  0  0  0  0  0  0  0
   -7.0030   -1.2250  -18.9250 C   0  0  0  0  0  0  0  0  0  0  0  0
  2  1  2  0
  3  2  2  0
  2  4  1  1
  5  2  1  0
  6  5  1  0
  6  4  1  0
  6  7  1  6
  8  6  1  0
  9  8  1  1
 10  9  2  0
 11  9  2  0
 12  9  1  0
 13 12  1  0
 14 13  1  0
 15 14  2  0
 16 15  1  0
 17 16  2  0
 18 17  1  0
 19 17  1  0
 20 19  2  0
 20 14  1  0
 21 20  1  0
 22 21  1  0
 22 12  1  0
 21 23  1  1
 24 23  2  0
 25 23  1  0
 26 25  1  0
 27 26  1  0
 28 27  2  0
 29 28  1  0
 30 29  2  0
 31 30  1  0
 32 31  2  0
 32 27  1  0
 33 32  1  0
 34 33  2  0
 35 34  1  0
 35 26  2  0
M  END
$$$$

     RDKit          3D

 34 38  0  0  0  0  0  0  0  0999 V2000
   -9.0330   -0.0150  -21.4900 O   0  0  0  0  0  0  0  0  0  0  0  0
   -8.6890   -1.0490  -22.0470 C   0  0  0  0  0  0  0  0  0  0  0  0
   -7.7750   -2.0520  -21.3420 C   0  0  0  0  0  0  0  0  0  0  0  0
   -6.9960   -1.4210  -20.3000 N   0  0  0  0  0  0  0  0  0  0  0  0
   -7.4520   -1.4210  -19.0200 N   0  0  0  0  0  0  0  0  0  0  0  0
   -6.6330   -0.7240  -18.2820 N   0  0  0  0  0  0  0  0  0  0  0  0
   -5.8490   -0.6950  -20.3890 C   0  0  0  0  0  0  0  0  0  0  0  0
   -5.6240   -0.2490  -19.0900 C   0  0  0  0  0  0  0  0  0  0  0  0
   -4.5380    0.5760  -18.8160 C   0  0  0  0  0  0  0  0  0  0  0  0
   -3.6940    0.9380  -19.8530 C   0  0  0  0  0  0  0  0  0  0  0  0
   -5.0070   -0.3510  -21.4350 C   0  0  0  0  0  0  0  0  0  0  0  0
   -3.9250    0.4710  -21.1450 C   0  0  0  0  0  0  0  0  0  0  0  0
   -2.9820    0.8790  -22.0520 O   0  0  0  0  0  0  0  0  0  0  0  0
   -3.1120    0.4550  -23.4100 C   0  0  0  0  0  0  0  0  0  0  0  0
   -9.1210   -1.3850  -23.2980 N   0  0  0  0  0  0  0  0  0  0  0  0
  -10.2330   -0.6240  -23.8740 C   0  0  0  0  0  0  0  0  0  0  0  0
  -11.4710   -1.4610  -24.0860 C   0  0  0  0  0  0  0  0  0  0  0  0
  -11.9400   -2.0960  -22.9980 N   0  0  0  0  0  0  0  0  0  0  0  0
  -12.8650   -3.0560  -23.1890 C   0  0  0  0  0  0  0  0  0  0  0  0
  -13.3630   -3.4030  -24.4310 C   0  0  0  0  0  0  0  0  0  0  0  0
  -12.9060   -2.7100  -25.5290 C   0  0  0  0  0  0  0  0  0  0  0  0
  -11.9520   -1.7180  -25.3670 C   0  0  0  0  0  0  0  0  0  0  0  0
   -8.6060   -2.4730  -24.0770 C   0  0  0  0  0  0  0  0  0  0  0  0
   -9.1900   -3.7380  -24.0090 C   0  0  0  0  0  0  0  0  0  0  0  0
   -8.6800   -4.7800  -24.7660 C   0  0  0  0  0  0  0  0  0  0  0  0
   -7.5850   -4.5930  -25.6010 C   0  0  0  0  0  0  0  0  0  0  0  0
   -7.0240   -3.3250  -25.6820 C   0  0  0  0  0  0  0  0  0  0  0  0
   -7.5200   -2.2720  -24.9310 C   0  0  0  0  0  0  0  0  0  0  0  0
   -6.9770   -5.7570  -26.3570 C   0  0  2  0  0  0  0  0  0  0  0  0
   -5.4500   -5.8030  -26.2500 C   0  0  0  0  0  0  0  0  0  0  0  0
   -4.8960   -7.0160  -26.9770 C   0  0  0  0  0  0  0  0  0  0  0  0
   -5.3230   -7.0150  -28.3940 N   0  0  0  0  0  0  0  0  0  0  0  0
   -6.7990   -7.0100  -28.5190 C   0  0  0  0  0  0  0  0  0  0  0  0
   -7.3900   -5.7900  -27.8310 C   0  0  0  0  0  0  0  0  0  0  0  0
  2  1  2  0
  3  2  1  0
  4  3  1  0
  5  4  1  0
  6  5  2  0
  7  4  1  0
  8  7  2  0
  8  6  1  0
  9  8  1  0
 10  9  2  0
 11  7  1  0
 12 11  2  0
 12 10  1  0
 13 12  1  0
 14 13  1  0
 15  2  1  0
 16 15  1  0
 17 16  1  0
 18 17  2  0
 19 18  1  0
 20 19  2  0
 21 20  1  0
 22 21  2  0
 22 17  1  0
 23 15  1  0
 24 23  2  0
 25 24  1  0
 26 25  2  0
 27 26  1  0
 28 27  2  0
 28 23  1  0
 29 26  1  6
 30 29  1  0
 31 30  1  0
 32 31  1  0
 33 32  1  0
 34 33  1  0
 34 29  1  0
M  CHG  1  32   1
M  END
$$$$

     RDKit          3D

 35 37  0  0  0  0  0  0  0  0999 V2000
   -6.1080    0.1380  -18.6800 C   0  0  0  0  0  0  0  0  0  0  0  0
   -7.4060   -4.4940  -19.9150 C   0  0  0  0  0  0  0  0  0  0  0  0
   -8.8040   -2.1670  -22.0870 C   0  0  0  0  0  0  0  0  0  0  0  0
   -9.8140    0.6450  -22.5060 C   0  0  0  0  0  0  0  0  0  0  0  0
  -11.8300    3.1290  -23.2700 C   0  0  0  0  0  0  0  0  0  0  0  0
   -5.3210   -0.7230  -20.7400 C   0  0  0  0  0  0  0  0  0  0  0  0
   -4.6990    0.6440  -20.5010 C   0  0  0  0  0  0  0  0  0  0  0  0
  -10.6590   -0.6830  -24.5140 C   0  0  0  0  0  0  0  0  0  0  0  0
   -6.5450   -0.7710  -19.8180 C   0  0  1  0  0  0  0  0  0  0  0  0
  -10.2310   -1.7710  -22.3290 C   0  0  2  0  0  0  0  0  0  0  0  0
  -11.1970   -2.0840  -24.5490 C   0  0  1  0  0  0  0  0  0  0  0  0
  -10.9210   -2.7500  -23.2340 C   0  0  2  0  0  0  0  0  0  0  0  0
  -12.3640   -2.5530  -23.6950 C   0  0  1  0  0  0  0  0  0  0  0  0
  -13.1980   -1.5480  -22.9640 C   0  0  0  0  0  0  0  0  0  0  0  0
  -13.0830   -3.7530  -24.1800 C   0  0  0  0  0  0  0  0  0  0  0  0
   -8.4680    3.5680  -24.5980 C   0  0  0  0  0  0  0  0  0  0  0  0
   -7.4960    1.3270  -24.2230 C   0  0  0  0  0  0  0  0  0  0  0  0
   -7.6910    2.9600  -22.3720 C   0  0  0  0  0  0  0  0  0  0  0  0
   -6.7620   -2.1720  -19.2880 C   0  0  0  0  0  0  0  0  0  0  0  0
   -7.2830   -3.0760  -20.3950 C   0  0  2  0  0  0  0  0  0  0  0  0
   -9.7640    1.8890  -23.3650 C   0  0  2  0  0  0  0  0  0  0  0  0
  -12.7220    3.9190  -22.3640 C   0  0  2  0  0  0  0  0  0  0  0  0
   -8.3610    2.4160  -23.6260 C   0  0  1  0  0  0  0  0  0  0  0  0
   -6.3760   -5.2680  -19.8710 N   0  0  0  0  0  0  0  0  0  0  0  0
   -5.1150    0.9720  -19.1620 N   0  0  0  0  0  0  0  0  0  0  0  0
  -10.1490   -0.5350  -23.1290 N   0  0  0  0  0  0  0  0  0  0  0  0
   -8.6050   -2.7000  -20.8370 N   0  0  0  0  0  0  0  0  0  0  0  0
  -10.6300    2.8190  -22.6990 N   0  0  0  0  0  0  0  0  0  0  0  0
   -6.5540    0.1250  -17.5430 O   0  0  0  0  0  0  0  0  0  0  0  0
   -7.9300   -2.0120  -22.9250 O   0  0  0  0  0  0  0  0  0  0  0  0
   -9.5900    0.6760  -21.3090 O   0  0  0  0  0  0  0  0  0  0  0  0
  -12.1400    2.8490  -24.4190 O   0  0  0  0  0  0  0  0  0  0  0  0
  -12.7340    3.4860  -21.0790 F   0  0  0  0  0  0  0  0  0  0  0  0
  -14.0150    3.9000  -22.7790 F   0  0  0  0  0  0  0  0  0  0  0  0
  -12.3310    5.2050  -22.3030 F   0  0  0  0  0  0  0  0  0  0  0  0
  7  6  1  0
  9  1  1  0
  9  6  1  0
 10  3  1  6
 11  8  1  1
 12 11  1  0
 12 10  1  1
 13 12  1  0
 13 11  1  0
 13 14  1  1
 15 13  1  0
  9 19  1  1
 20 19  1  1
 20  2  1  0
 21  4  1  0
 22  5  1  0
 23 21  1  0
 23 18  1  1
 23 17  1  0
 23 16  1  0
 24  2  1  0
 25  1  1  0
 25  7  1  0
 26 10  1  0
 26  8  1  0
 26  4  1  0
 27  3  1  0
 27 20  1  0
 28  5  1  0
 21 28  1  1
 29  1  2  0
 30  3  2  0
 31  4  2  0
 32  5  2  0
 22 33  1  1
 34 22  1  0
 35 22  1  0
M  END
$$$$

     RDKit          3D

 20 22  0  0  0  0  0  0  0  0999 V2000
   -6.7690   -3.9230  -21.5010 N   0  0  0  0  0  0  0  0  0  0  0  0
  -12.0380   -2.0300  -22.7530 C   0  0  0  0  0  0  0  0  0  0  0  0
   -6.7180   -6.1010  -24.4800 C   0  0  0  0  0  0  0  0  0  0  0  0
   -7.9280   -3.0630  -21.8000 C   0  0  0  0  0  0  0  0  0  0  0  0
  -12.1810   -1.0080  -23.6860 C   0  0  0  0  0  0  0  0  0  0  0  0
  -10.8030   -2.6560  -22.6460 C   0  0  0  0  0  0  0  0  0  0  0  0
   -6.2910   -4.2410  -20.2770 C   0  0  0  0  0  0  0  0  0  0  0  0
   -9.7330   -2.2980  -23.4590 C   0  0  0  0  0  0  0  0  0  0  0  0
   -9.9150   -1.2960  -24.4040 C   0  0  0  0  0  0  0  0  0  0  0  0
   -6.9830   -4.9400  -23.7530 C   0  0  0  0  0  0  0  0  0  0  0  0
   -8.7540   -5.8290  -25.7030 C   0  0  0  0  0  0  0  0  0  0  0  0
   -7.1190   -3.8330  -19.0840 C   0  0  0  0  0  0  0  0  0  0  0  0
   -6.0490   -4.3880  -22.7090 C   0  0  0  0  0  0  0  0  0  0  0  0
   -7.5990   -6.5330  -25.4570 C   0  0  0  0  0  0  0  0  0  0  0  0
   -9.0300   -4.6760  -24.9830 C   0  0  0  0  0  0  0  0  0  0  0  0
  -13.2160   -2.5020  -21.9380 C   0  0  0  0  0  0  0  0  0  0  0  0
   -5.2170   -4.7810  -20.1320 O   0  0  0  0  0  0  0  0  0  0  0  0
   -8.3560   -2.9210  -23.2670 C   0  0  2  0  0  0  0  0  0  0  0  0
  -11.1310   -0.6500  -24.5140 C   0  0  0  0  0  0  0  0  0  0  0  0
   -8.1420   -4.2160  -24.0130 C   0  0  0  0  0  0  0  0  0  0  0  0
  4  1  1  0
  5  2  2  0
  6  2  1  0
  7  1  1  0
  8  6  2  0
  9  8  1  0
 10  3  2  0
 12  7  1  0
 13 10  1  0
 13  1  1  0
 14 11  2  0
 14  3  1  0
 15 11  1  0
 16  2  1  0
 17  7  2  0
 18  8  1  1
 18  4  1  0
 19  5  1  0
 19  9  2  0
 20 18  1  0
 20 15  2  0
 20 10  1  0
M  END
$$$$

     RDKit          3D

 30 34  0  0  0  0  0  0  0  0999 V2000
   -8.4950    0.0090  -21.5430 O   0  0  0  0  0  0  0  0  0  0  0  0
   -8.2020   -1.1810  -21.4670 C   0  0  0  0  0  0  0  0  0  0  0  0
   -7.4770   -1.6970  -20.4570 N   0  0  0  0  0  0  0  0  0  0  0  0
   -6.4800   -1.1170  -19.6440 C   0  0  0  0  0  0  0  0  0  0  0  0
   -5.5370   -0.1650  -20.1590 C   0  0  0  0  0  0  0  0  0  0  0  0
   -5.2390   -0.0140  -21.5410 C   0  0  0  0  0  0  0  0  0  0  0  0
   -4.2370    0.8170  -21.9590 C   0  0  0  0  0  0  0  0  0  0  0  0
   -3.4880    1.5390  -21.0420 C   0  0  0  0  0  0  0  0  0  0  0  0
   -3.7440    1.4420  -19.7030 C   0  0  0  0  0  0  0  0  0  0  0  0
   -4.7690    0.5850  -19.2250 C   0  0  0  0  0  0  0  0  0  0  0  0
   -5.0080    0.3680  -17.8510 C   0  0  0  0  0  0  0  0  0  0  0  0
   -5.8740   -0.5100  -17.3740 N   0  0  0  0  0  0  0  0  0  0  0  0
   -6.5670   -1.2340  -18.2580 C   0  0  0  0  0  0  0  0  0  0  0  0
   -8.7760   -2.2260  -22.4280 C   0  0  1  0  0  0  0  0  0  0  0  0
  -10.1930   -1.8860  -22.8400 C   0  0  0  0  0  0  0  0  0  0  0  0
  -10.4140   -0.9750  -23.8790 C   0  0  0  0  0  0  0  0  0  0  0  0
  -11.7080   -0.5930  -24.2240 C   0  0  0  0  0  0  0  0  0  0  0  0
  -12.7870   -1.1300  -23.5420 C   0  0  0  0  0  0  0  0  0  0  0  0
  -11.2860   -2.4390  -22.1810 C   0  0  0  0  0  0  0  0  0  0  0  0
  -12.5630   -2.0520  -22.5380 C   0  0  0  0  0  0  0  0  0  0  0  0
  -13.9200   -2.7330  -21.6790 Cl  0  0  0  0  0  0  0  0  0  0  0  0
   -7.9260   -2.3380  -23.7100 C   0  0  0  0  0  0  0  0  0  0  0  0
   -7.9470   -1.0250  -24.4970 C   0  0  0  0  0  0  0  0  0  0  0  0
   -9.2960   -0.4580  -24.6270 N   0  0  0  0  0  0  0  0  0  0  0  0
   -9.4180    0.7110  -25.4740 C   0  0  0  0  0  0  0  0  0  0  0  0
   -9.5100    0.3340  -26.9160 C   0  0  0  0  0  0  0  0  0  0  0  0
  -10.0820   -0.8210  -27.3580 N   0  0  0  0  0  0  0  0  0  0  0  0
  -10.0140   -0.8160  -28.7210 C   0  0  0  0  0  0  0  0  0  0  0  0
   -9.3930    0.3580  -29.0690 C   0  0  0  0  0  0  0  0  0  0  0  0
   -9.0750    1.0780  -27.9380 N   0  0  0  0  0  0  0  0  0  0  0  0
  2  1  2  0
  3  2  1  0
  4  3  1  0
  5  4  1  0
  6  5  2  0
  7  6  1  0
  8  7  2  0
  9  8  1  0
 10  5  1  0
 10  9  2  0
 11 10  1  0
 12 11  2  0
 13 12  1  0
 13  4  2  0
 14  2  1  1
 15 14  1  0
 16 15  1  0
 17 16  2  0
 18 17  1  0
 19 15  2  0
 20 19  1  0
 20 18  2  0
 21 20  1  0
 22 14  1  0
 23 22  1  0
 24 23  1  0
 24 16  1  0
 25 24  1  0
 26 25  1  0
 27 26  2  0
 28 27  1  0
 29 28  2  0
 30 29  1  0
 30 26  1  0
M  END
$$$$

     RDKit          3D

 25 28  0  0  0  0  0  0  0  0999 V2000
   -8.4550   -0.2490  -21.3460 O   0  0  0  0  0  0  0  0  0  0  0  0
   -7.9760   -1.3550  -21.5450 C   0  0  0  0  0  0  0  0  0  0  0  0
   -8.7520   -2.4410  -22.2710 C   0  0  1  0  0  0  0  0  0  0  0  0
  -10.1080   -1.9870  -22.7840 C   0  0  0  0  0  0  0  0  0  0  0  0
  -10.2340   -0.9780  -23.7310 C   0  0  0  0  0  0  0  0  0  0  0  0
  -11.4790   -0.5330  -24.1280 C   0  0  0  0  0  0  0  0  0  0  0  0
  -11.2570   -2.5740  -22.2720 C   0  0  0  0  0  0  0  0  0  0  0  0
  -12.5030   -2.1430  -22.6780 C   0  0  0  0  0  0  0  0  0  0  0  0
  -13.9110   -2.9460  -22.0600 Cl  0  0  0  0  0  0  0  0  0  0  0  0
  -12.6190   -1.1080  -23.5920 C   0  0  0  0  0  0  0  0  0  0  0  0
  -14.1650   -0.4760  -24.0370 Cl  0  0  0  0  0  0  0  0  0  0  0  0
   -6.7290   -1.6920  -21.0990 N   0  0  0  0  0  0  0  0  0  0  0  0
   -5.8580   -2.6910  -21.7510 C   0  0  0  0  0  0  0  0  0  0  0  0
   -6.6210   -3.7240  -22.5830 C   0  0  0  0  0  0  0  0  0  0  0  0
   -7.8340   -3.1210  -23.2890 C   0  0  0  0  0  0  0  0  0  0  0  0
   -6.1070   -0.9280  -20.0610 C   0  0  0  0  0  0  0  0  0  0  0  0
   -5.0630    0.0210  -20.2820 C   0  0  0  0  0  0  0  0  0  0  0  0
   -4.5360    0.3470  -21.5610 C   0  0  0  0  0  0  0  0  0  0  0  0
   -3.5320    1.2640  -21.6960 C   0  0  0  0  0  0  0  0  0  0  0  0
   -2.9990    1.8970  -20.5850 C   0  0  0  0  0  0  0  0  0  0  0  0
   -3.4740    1.6240  -19.3340 C   0  0  0  0  0  0  0  0  0  0  0  0
   -4.5210    0.6880  -19.1480 C   0  0  0  0  0  0  0  0  0  0  0  0
   -5.0750    0.3880  -17.8770 C   0  0  0  0  0  0  0  0  0  0  0  0
   -6.0580   -0.4750  -17.6790 N   0  0  0  0  0  0  0  0  0  0  0  0
   -6.5420   -1.1110  -18.7530 C   0  0  0  0  0  0  0  0  0  0  0  0
  2  1  2  0
  3  2  1  0
  3  4  1  6
  5  4  2  0
  6  5  1  0
  7  4  1  0
  8  7  2  0
  9  8  1  0
 10  8  1  0
 10  6  2  0
 11 10  1  0
 12  2  1  0
 13 12  1  0
 14 13  1  0
 15 14  1  0
 15  3  1  0
 16 12  1  0
 17 16  1  0
 18 17  2  0
 19 18  1  0
 20 19  2  0
 21 20  1  0
 22 21  2  0
 22 17  1  0
 23 22  1  0
 24 23  2  0
 25 24  1  0
 25 16  2  0
M  END
$$$$

     RDKit          3D

 35 37  0  0  0  0  0  0  0  0999 V2000
   -6.0500    0.2890  -18.5170 C   0  0  0  0  0  0  0  0  0  0  0  0
   -7.1930   -4.3610  -20.0570 C   0  0  0  0  0  0  0  0  0  0  0  0
   -8.5380   -1.8770  -22.0900 C   0  0  0  0  0  0  0  0  0  0  0  0
   -9.6500    0.9230  -22.5420 C   0  0  0  0  0  0  0  0  0  0  0  0
  -11.6830    3.5900  -23.4010 C   0  0  0  0  0  0  0  0  0  0  0  0
   -5.0310   -0.6360  -20.4440 C   0  0  0  0  0  0  0  0  0  0  0  0
   -4.4930    0.7620  -20.1890 C   0  0  0  0  0  0  0  0  0  0  0  0
  -10.4810   -0.4140  -24.5410 C   0  0  0  0  0  0  0  0  0  0  0  0
   -6.3610   -0.6250  -19.6830 C   0  0  1  0  0  0  0  0  0  0  0  0
   -9.9560   -1.5000  -22.3980 C   0  0  2  0  0  0  0  0  0  0  0  0
  -10.9750   -1.8060  -24.5740 C   0  0  1  0  0  0  0  0  0  0  0  0
  -10.6590   -2.4790  -23.2840 C   0  0  2  0  0  0  0  0  0  0  0  0
  -12.1120   -2.3420  -23.7240 C   0  0  1  0  0  0  0  0  0  0  0  0
  -12.9730   -1.3480  -23.0260 C   0  0  0  0  0  0  0  0  0  0  0  0
  -12.8120   -3.5550  -24.2200 C   0  0  0  0  0  0  0  0  0  0  0  0
   -8.3270    3.8210  -24.6070 C   0  0  0  0  0  0  0  0  0  0  0  0
   -7.2940    1.6990  -24.0080 C   0  0  0  0  0  0  0  0  0  0  0  0
   -7.7550    3.4090  -22.2640 C   0  0  0  0  0  0  0  0  0  0  0  0
   -6.7450   -2.0150  -19.2090 C   0  0  0  0  0  0  0  0  0  0  0  0
   -7.1100   -2.8980  -20.3920 C   0  0  2  0  0  0  0  0  0  0  0  0
   -9.6520    2.1640  -23.4040 C   0  0  2  0  0  0  0  0  0  0  0  0
  -12.6090    4.3310  -22.4700 C   0  0  2  0  0  0  0  0  0  0  0  0
   -8.2610    2.7590  -23.5360 C   0  0  1  0  0  0  0  0  0  0  0  0
   -6.1040   -5.0580  -19.9320 N   0  0  0  0  0  0  0  0  0  0  0  0
   -4.8990    0.9940  -18.8270 N   0  0  0  0  0  0  0  0  0  0  0  0
   -9.8980   -0.2620  -23.1920 N   0  0  0  0  0  0  0  0  0  0  0  0
   -8.4160   -2.5220  -20.8840 N   0  0  0  0  0  0  0  0  0  0  0  0
  -10.5980    3.0370  -22.7340 N   0  0  0  0  0  0  0  0  0  0  0  0
   -6.7160    0.3930  -17.5030 O   0  0  0  0  0  0  0  0  0  0  0  0
   -7.6120   -1.6310  -22.8470 O   0  0  0  0  0  0  0  0  0  0  0  0
   -9.4170    0.9630  -21.3420 O   0  0  0  0  0  0  0  0  0  0  0  0
  -11.8830    3.5380  -24.6100 O   0  0  0  0  0  0  0  0  0  0  0  0
  -12.6220    3.8060  -21.2240 F   0  0  0  0  0  0  0  0  0  0  0  0
  -13.9070    4.2780  -22.8530 F   0  0  0  0  0  0  0  0  0  0  0  0
  -12.3030    5.6520  -22.3500 F   0  0  0  0  0  0  0  0  0  0  0  0
  7  6  1  0
  9  1  1  0
  9  6  1  0
 10  3  1  6
 11  8  1  1
 12 11  1  0
 12 10  1  1
 13 11  1  0
 13 12  1  0
 13 14  1  1
 15 13  1  0
  9 19  1  1
 20 19  1  1
 20  2  1  0
 21  4  1  0
 22  5  1  0
 23 21  1  0
 23 18  1  1
 23 17  1  0
 23 16  1  0
 24  2  1  0
 25  1  1  0
 25  7  1  0
 26 10  1  0
 26  8  1  0
 26  4  1  0
 27  3  1  0
 27 20  1  0
 28  5  1  0
 21 28  1  1
 29  1  2  0
 30  3  2  0
 31  4  2  0
 32  5  2  0
 22 33  1  1
 34 22  1  0
 35 22  1  0
M  CHG  1  24   1
M  END
$$$$

     RDKit          3D

 18 20  0  0  0  0  0  0  0  0999 V2000
   -6.6610   -5.6300  -21.4480 N   0  0  0  0  0  0  0  0  0  0  0  0
   -7.0000   -4.0450  -19.5840 C   0  0  0  0  0  0  0  0  0  0  0  0
   -5.1680   -5.5350  -19.7810 O   0  0  0  0  0  0  0  0  0  0  0  0
   -6.2030   -5.1210  -20.2870 C   0  0  0  0  0  0  0  0  0  0  0  0
  -12.6750   -2.0690  -25.2700 C   0  0  0  0  0  0  0  0  0  0  0  0
  -13.1580   -3.1580  -25.9820 C   0  0  0  0  0  0  0  0  0  0  0  0
  -12.4560   -4.3400  -26.0240 C   0  0  0  0  0  0  0  0  0  0  0  0
  -11.2540   -4.4070  -25.3220 C   0  0  0  0  0  0  0  0  0  0  0  0
   -5.7900   -6.4850  -22.2650 C   0  0  0  0  0  0  0  0  0  0  0  0
   -6.5910   -7.4350  -23.1320 C   0  0  0  0  0  0  0  0  0  0  0  0
   -7.4550   -6.6570  -24.1270 C   0  0  0  0  0  0  0  0  0  0  0  0
   -7.8790   -5.3070  -23.5380 C   0  0  2  0  0  0  0  0  0  0  0  0
   -7.9840   -5.4270  -22.0290 C   0  0  0  0  0  0  0  0  0  0  0  0
   -9.1510   -4.7610  -24.1450 C   0  0  0  0  0  0  0  0  0  0  0  0
  -10.7630   -3.3160  -24.5980 C   0  0  0  0  0  0  0  0  0  0  0  0
  -11.4850   -2.1280  -24.5760 C   0  0  0  0  0  0  0  0  0  0  0  0
   -9.5520   -3.5460  -23.9480 N   0  0  0  0  0  0  0  0  0  0  0  0
  -10.1580   -5.7440  -25.1810 S   0  0  0  0  0  0  0  0  0  0  0  0
  4  1  1  0
  4  2  1  0
  4  3  2  0
  6  5  2  0
  7  6  1  0
  8  7  2  0
  9  1  1  0
 10  9  1  0
 11 10  1  0
 12 11  1  0
 13  1  1  0
 13 12  1  0
 12 14  1  6
 15  8  1  0
 16  5  1  0
 16 15  2  0
 17 15  1  0
 17 14  2  0
 18  8  1  0
 18 14  1  0
M  END
$$$$

     RDKit          3D

 15 16  0  0  0  0  0  0  0  0999 V2000
   -5.5850   -5.1710  -19.8920 O   0  0  0  0  0  0  0  0  0  0  0  0
   -6.3060   -4.1940  -19.9840 C   0  0  0  0  0  0  0  0  0  0  0  0
   -6.9220   -3.5830  -18.7430 C   0  0  0  0  0  0  0  0  0  0  0  0
   -6.6810   -3.6900  -21.1760 N   0  0  0  0  0  0  0  0  0  0  0  0
   -7.5220   -2.5010  -21.3500 C   0  0  0  0  0  0  0  0  0  0  0  0
   -8.8120   -2.9020  -22.0280 C   0  0  0  0  0  0  0  0  0  0  0  0
   -8.5350   -3.5200  -23.3400 N   0  0  1  0  0  0  0  0  0  0  0  0
   -7.6800   -4.7110  -23.1690 C   0  0  0  0  0  0  0  0  0  0  0  0
   -6.3810   -4.3550  -22.4500 C   0  0  0  0  0  0  0  0  0  0  0  0
   -9.7800   -3.8730  -24.0280 C   0  0  0  0  0  0  0  0  0  0  0  0
  -10.7980   -2.7710  -24.0350 C   0  0  0  0  0  0  0  0  0  0  0  0
  -10.7350   -1.5220  -25.1860 S   0  0  0  0  0  0  0  0  0  0  0  0
  -12.0990   -0.7450  -24.5160 C   0  0  0  0  0  0  0  0  0  0  0  0
  -12.6080   -1.4030  -23.4540 C   0  0  0  0  0  0  0  0  0  0  0  0
  -11.8860   -2.5820  -23.1370 C   0  0  0  0  0  0  0  0  0  0  0  0
  2  1  2  0
  3  2  1  0
  4  2  1  0
  5  4  1  0
  6  5  1  0
  7  6  1  0
  8  7  1  0
  9  8  1  0
  9  4  1  0
  7 10  1  1
 11 10  1  0
 12 11  1  0
 13 12  1  0
 14 13  2  0
 15 14  1  0
 15 11  2  0
M  CHG  1   7   1
M  END
$$$$

     RDKit          3D

 18 19  0  0  0  0  0  0  0  0999 V2000
   -2.9130    1.2870  -23.6240 C   0  0  0  0  0  0  0  0  0  0  0  0
   -5.1710    0.4610  -22.8320 C   0  0  0  0  0  0  0  0  0  0  0  0
   -4.8120   -0.7510  -21.9760 C   0  0  0  0  0  0  0  0  0  0  0  0
   -5.2590   -0.6310  -20.5200 C   0  0  0  0  0  0  0  0  0  0  0  0
   -6.3070   -1.4320  -20.0630 C   0  0  0  0  0  0  0  0  0  0  0  0
   -6.7080   -1.3140  -18.7380 C   0  0  0  0  0  0  0  0  0  0  0  0
   -5.0950    0.2930  -18.3340 C   0  0  0  0  0  0  0  0  0  0  0  0
   -4.6270    0.2550  -19.6440 C   0  0  0  0  0  0  0  0  0  0  0  0
   -0.6640    2.3410  -24.2130 C   0  0  1  0  0  0  0  0  0  0  0  0
   -0.5990    3.7780  -24.7380 C   0  0  0  0  0  0  0  0  0  0  0  0
    0.7220    4.0660  -25.4350 C   0  0  0  0  0  0  0  0  0  0  0  0
    1.8900    3.8040  -24.4940 C   0  0  0  0  0  0  0  0  0  0  0  0
    1.8780    2.3750  -23.9600 C   0  0  0  0  0  0  0  0  0  0  0  0
    0.5320    1.9840  -23.3430 C   0  0  0  0  0  0  0  0  0  0  0  0
   -4.0700    1.3950  -22.7510 N   0  0  0  0  0  0  0  0  0  0  0  0
   -6.1080   -0.4740  -17.9270 N   0  0  0  0  0  0  0  0  0  0  0  0
   -1.8690    2.2700  -23.4140 N   0  0  0  0  0  0  0  0  0  0  0  0
   -2.8370    0.4350  -24.4590 O   0  0  0  0  0  0  0  0  0  0  0  0
  3  2  1  0
  4  3  1  0
  5  4  2  0
  6  5  1  0
  8  7  2  0
  8  4  1  0
 10  9  1  0
 11 10  1  0
 12 11  1  0
 13 12  1  0
 14 13  1  0
 14  9  1  0
 15  2  1  0
 15  1  1  0
 16  6  2  0
 16  7  1  0
  9 17  1  1
 17  1  1  0
 18  1  2  0
M  END
$$$$

     RDKit          3D

 20 21  0  0  0  0  0  0  0  0999 V2000
   -6.6720   -4.5410  -21.3710 N   0  0  0  0  0  0  0  0  0  0  0  0
   -6.6360   -3.9360  -19.0010 C   0  0  0  0  0  0  0  0  0  0  0  0
   -5.3190   -5.6450  -19.9340 O   0  0  0  0  0  0  0  0  0  0  0  0
   -6.1500   -4.7750  -20.1450 C   0  0  0  0  0  0  0  0  0  0  0  0
   -9.1350   -6.1390  -26.7870 C   0  0  0  0  0  0  0  0  0  0  0  0
   -8.6750   -5.0280  -26.0890 C   0  0  0  0  0  0  0  0  0  0  0  0
   -9.5000   -4.4590  -25.0550 C   0  0  0  0  0  0  0  0  0  0  0  0
   -7.6090   -3.4700  -21.7400 C   0  0  0  0  0  0  0  0  0  0  0  0
   -7.0560   -2.6370  -22.8680 C   0  0  0  0  0  0  0  0  0  0  0  0
   -5.7130   -4.5350  -23.5990 C   0  0  0  0  0  0  0  0  0  0  0  0
   -6.2970   -5.3880  -22.5070 C   0  0  0  0  0  0  0  0  0  0  0  0
   -7.4360   -4.4490  -26.4170 C   0  0  0  0  0  0  0  0  0  0  0  0
   -6.6620   -5.0360  -27.4140 C   0  0  0  0  0  0  0  0  0  0  0  0
   -7.1330   -6.1410  -28.0980 C   0  0  0  0  0  0  0  0  0  0  0  0
   -8.3580   -6.6870  -27.7880 C   0  0  0  0  0  0  0  0  0  0  0  0
   -6.7440   -3.5560  -23.9710 N   0  0  0  0  0  0  0  0  0  0  0  0
  -10.1580   -3.9080  -24.2950 N   0  0  0  0  0  0  0  0  0  0  0  0
   -7.8000   -2.0100  -25.5910 O   0  0  0  0  0  0  0  0  0  0  0  0
   -5.4810   -2.7920  -25.9610 O   0  0  0  0  0  0  0  0  0  0  0  0
   -6.8190   -3.0470  -25.5280 S   0  0  2  0  0  0  0  0  0  0  0  0
  4  2  1  0
  4  1  1  0
  4  3  2  0
  6  5  2  0
  7  6  1  0
  8  1  1  0
  9  8  1  0
 11 10  1  0
 11  1  1  0
 12  6  1  0
 13 12  2  0
 14 13  1  0
 15 14  2  0
 15  5  1  0
 16 10  1  0
 16  9  1  0
 17  7  3  0
 20 19  2  0
 20 18  2  0
 20 16  1  1
 20 12  1  0
M  END
$$$$

     RDKit          3D

 35 40  0  0  0  0  0  0  0  0999 V2000
   -9.1900    0.1740  -21.1290 O   0  0  0  0  0  0  0  0  0  0  0  0
   -8.6860   -0.7300  -21.7740 C   0  0  0  0  0  0  0  0  0  0  0  0
   -7.5680   -1.3700  -21.3480 N   0  0  0  0  0  0  0  0  0  0  0  0
   -6.7790   -0.9940  -20.2400 C   0  0  0  0  0  0  0  0  0  0  0  0
   -5.6150   -0.1920  -20.4700 C   0  0  0  0  0  0  0  0  0  0  0  0
   -5.0930    0.0860  -21.7590 C   0  0  0  0  0  0  0  0  0  0  0  0
   -3.9880    0.8740  -21.9150 C   0  0  0  0  0  0  0  0  0  0  0  0
   -3.3530    1.4300  -20.8100 C   0  0  0  0  0  0  0  0  0  0  0  0
   -3.8160    1.1920  -19.5490 C   0  0  0  0  0  0  0  0  0  0  0  0
   -4.9520    0.3670  -19.3420 C   0  0  0  0  0  0  0  0  0  0  0  0
   -5.4700    0.0750  -18.0590 C   0  0  0  0  0  0  0  0  0  0  0  0
   -6.5270   -0.6960  -17.8420 N   0  0  0  0  0  0  0  0  0  0  0  0
   -7.1500   -1.2110  -18.9120 C   0  0  0  0  0  0  0  0  0  0  0  0
   -9.2320   -1.0600  -23.1720 C   0  0  1  0  0  0  0  0  0  0  0  0
  -10.7780   -0.9860  -23.1980 C   0  0  0  0  0  0  0  0  0  0  0  0
  -11.5680   -1.8040  -22.3860 C   0  0  0  0  0  0  0  0  0  0  0  0
  -12.9400   -1.5990  -22.3370 C   0  0  0  0  0  0  0  0  0  0  0  0
  -13.8940   -2.5050  -21.1910 Cl  0  0  0  0  0  0  0  0  0  0  0  0
  -13.5590   -0.6440  -23.1070 C   0  0  0  0  0  0  0  0  0  0  0  0
  -12.7980    0.1490  -23.9400 C   0  0  0  0  0  0  0  0  0  0  0  0
  -11.4260   -0.0030  -23.9610 C   0  0  0  0  0  0  0  0  0  0  0  0
  -10.7530    0.9530  -24.6810 O   0  0  0  0  0  0  0  0  0  0  0  0
   -9.4260    0.5970  -25.0780 C   0  0  0  0  0  0  0  0  0  0  0  0
   -8.6070    0.1600  -23.8900 C   0  0  0  0  0  0  0  0  0  0  0  0
   -8.7250   -2.3000  -23.9390 C   0  0  0  0  0  0  0  0  0  0  0  0
   -8.9720   -3.6390  -23.2860 C   0  0  0  0  0  0  0  0  0  0  0  0
   -8.9790   -3.7680  -22.0720 O   0  0  0  0  0  0  0  0  0  0  0  0
   -9.1380   -4.6920  -24.1160 N   0  0  0  0  0  0  0  0  0  0  0  0
   -8.1640   -5.7750  -24.3440 C   0  0  2  0  0  0  0  0  0  0  0  0
   -7.5110   -5.5770  -25.7100 C   0  0  0  0  0  0  0  0  0  0  0  0
  -10.2540   -4.9290  -25.0330 C   0  0  0  0  0  0  0  0  0  0  0  0
   -9.7930   -6.1770  -25.7910 C   0  0  2  0  0  0  0  0  0  0  0  0
   -9.0890   -6.9500  -24.6720 C   0  0  0  0  0  0  0  0  0  0  0  0
   -8.6510   -5.7260  -26.6240 N   0  0  2  0  0  0  0  0  0  0  0  0
   -8.3590   -6.6210  -27.7450 C   0  0  0  0  0  0  0  0  0  0  0  0
  2  1  2  0
  3  2  1  0
  4  3  1  0
  5  4  1  0
  6  5  2  0
  7  6  1  0
  8  7  2  0
  9  8  1  0
 10  5  1  0
 10  9  2  0
 11 10  1  0
 12 11  2  0
 13 12  1  0
 13  4  2  0
 14  2  1  0
 15 14  1  0
 16 15  2  0
 17 16  1  0
 18 17  1  0
 19 17  2  0
 20 19  1  0
 21 20  2  0
 21 15  1  0
 22 21  1  0
 23 22  1  0
 24 23  1  0
 24 14  1  0
 14 25  1  6
 26 25  1  0
 27 26  2  0
 28 26  1  0
 29 28  1  0
 29 30  1  6
 31 28  1  0
 32 31  1  1
 33 32  1  0
 33 29  1  0
 34 32  1  0
 34 30  1  0
 34 35  1  6
M  CHG  1  34   1
M  END
$$$$

     RDKit          3D

 24 27  0  0  0  0  0  0  0  0999 V2000
   -8.6040   -0.1470  -21.2950 O   0  0  0  0  0  0  0  0  0  0  0  0
   -7.9870   -1.0500  -21.8350 C   0  0  0  0  0  0  0  0  0  0  0  0
   -8.4610   -1.6390  -23.1620 C   0  0  2  0  0  0  0  0  0  0  0  0
   -9.9740   -1.6140  -23.2710 C   0  0  0  0  0  0  0  0  0  0  0  0
  -10.7630   -2.2600  -22.3260 C   0  0  0  0  0  0  0  0  0  0  0  0
  -12.1420   -2.2640  -22.4290 C   0  0  0  0  0  0  0  0  0  0  0  0
  -10.6010   -0.9800  -24.3360 C   0  0  0  0  0  0  0  0  0  0  0  0
  -11.9790   -0.9710  -24.4520 C   0  0  0  0  0  0  0  0  0  0  0  0
  -12.7350   -1.6120  -23.4930 C   0  0  0  0  0  0  0  0  0  0  0  0
  -14.4710   -1.5710  -23.6050 Cl  0  0  0  0  0  0  0  0  0  0  0  0
   -6.8180   -1.5410  -21.3190 N   0  0  0  0  0  0  0  0  0  0  0  0
   -6.2500   -2.8630  -21.6350 C   0  0  0  0  0  0  0  0  0  0  0  0
   -6.4750   -3.1900  -23.0990 C   0  0  0  0  0  0  0  0  0  0  0  0
   -7.9520   -3.0670  -23.4430 C   0  0  0  0  0  0  0  0  0  0  0  0
   -6.2280   -0.9620  -20.1530 C   0  0  0  0  0  0  0  0  0  0  0  0
   -5.1370   -0.0630  -20.3160 C   0  0  0  0  0  0  0  0  0  0  0  0
   -4.5800    0.2890  -21.5730 C   0  0  0  0  0  0  0  0  0  0  0  0
   -3.5410    1.1700  -21.6590 C   0  0  0  0  0  0  0  0  0  0  0  0
   -3.0040    1.7450  -20.5150 C   0  0  0  0  0  0  0  0  0  0  0  0
   -3.5030    1.4410  -19.2830 C   0  0  0  0  0  0  0  0  0  0  0  0
   -4.5760    0.5290  -19.1460 C   0  0  0  0  0  0  0  0  0  0  0  0
   -5.1320    0.1680  -17.8950 C   0  0  0  0  0  0  0  0  0  0  0  0
   -6.1370   -0.6870  -17.7470 N   0  0  0  0  0  0  0  0  0  0  0  0
   -6.6590   -1.2260  -18.8580 C   0  0  0  0  0  0  0  0  0  0  0  0
  2  1  2  0
  3  2  1  0
  3  4  1  1
  5  4  2  0
  6  5  1  0
  7  4  1  0
  8  7  2  0
  9  8  1  0
  9  6  2  0
 10  9  1  0
 11  2  1  0
 12 11  1  0
 13 12  1  0
 14 13  1  0
 14  3  1  0
 15 11  1  0
 16 15  1  0
 17 16  2  0
 18 17  1  0
 19 18  2  0
 20 19  1  0
 21 20  2  0
 21 16  1  0
 22 21  1  0
 23 22  2  0
 24 23  1  0
 24 15  2  0
M  END
$$$$

     RDKit          3D

 32 35  0  0  0  0  0  0  0  0999 V2000
   -8.8760    0.3470  -21.0750 O   0  0  0  0  0  0  0  0  0  0  0  0
   -8.4460   -0.6010  -21.7160 C   0  0  0  0  0  0  0  0  0  0  0  0
   -7.4150   -1.5400  -21.1110 C   0  0  0  0  0  0  0  0  0  0  0  0
   -6.6300   -0.9190  -19.9750 C   0  0  0  0  0  0  0  0  0  0  0  0
   -5.5740    0.0040  -20.2300 C   0  0  0  0  0  0  0  0  0  0  0  0
   -5.1700    0.3850  -21.5390 C   0  0  0  0  0  0  0  0  0  0  0  0
   -4.1670    1.2930  -21.7280 C   0  0  0  0  0  0  0  0  0  0  0  0
   -3.5140    1.8650  -20.6420 C   0  0  0  0  0  0  0  0  0  0  0  0
   -3.8590    1.5240  -19.3660 C   0  0  0  0  0  0  0  0  0  0  0  0
   -4.8990    0.5890  -19.1260 C   0  0  0  0  0  0  0  0  0  0  0  0
   -5.3250    0.2130  -17.8300 C   0  0  0  0  0  0  0  0  0  0  0  0
   -6.3050   -0.6510  -17.5930 N   0  0  0  0  0  0  0  0  0  0  0  0
   -6.9210   -1.1960  -18.6510 C   0  0  0  0  0  0  0  0  0  0  0  0
   -8.8570   -0.8470  -22.9930 N   0  0  0  0  0  0  0  0  0  0  0  0
   -9.9310   -0.0290  -23.5630 C   0  0  0  0  0  0  0  0  0  0  0  0
  -11.2000   -0.8040  -23.8110 C   0  0  0  0  0  0  0  0  0  0  0  0
  -11.8890   -1.3810  -22.7510 C   0  0  0  0  0  0  0  0  0  0  0  0
  -13.0320   -2.1160  -23.0000 C   0  0  0  0  0  0  0  0  0  0  0  0
  -13.8900   -2.8180  -21.6570 Cl  0  0  0  0  0  0  0  0  0  0  0  0
  -13.5110   -2.3040  -24.2770 C   0  0  0  0  0  0  0  0  0  0  0  0
  -12.8250   -1.7290  -25.3360 C   0  0  0  0  0  0  0  0  0  0  0  0
  -11.6800   -0.9830  -25.1010 C   0  0  0  0  0  0  0  0  0  0  0  0
   -8.2390   -1.8030  -23.8520 C   0  0  0  0  0  0  0  0  0  0  0  0
   -7.2430   -1.3980  -24.7310 C   0  0  0  0  0  0  0  0  0  0  0  0
   -6.4940   -2.3430  -25.4000 C   0  0  0  0  0  0  0  0  0  0  0  0
   -8.4580   -3.1670  -23.6740 C   0  0  0  0  0  0  0  0  0  0  0  0
   -7.7410   -4.1010  -24.3160 N   0  0  0  0  0  0  0  0  0  0  0  0
   -6.7770   -3.6940  -25.1640 C   0  0  0  0  0  0  0  0  0  0  0  0
   -6.0670   -4.7200  -25.8010 N   0  0  0  0  0  0  0  0  0  0  0  0
   -5.0360   -4.6120  -26.6810 C   0  0  0  0  0  0  0  0  0  0  0  0
   -4.3420   -3.5980  -26.7880 O   0  0  0  0  0  0  0  0  0  0  0  0
   -4.8020   -5.8250  -27.5330 C   0  0  0  0  0  0  0  0  0  0  0  0
  2  1  2  0
  3  2  1  0
  4  3  1  0
  5  4  1  0
  6  5  2  0
  7  6  1  0
  8  7  2  0
  9  8  1  0
 10  5  1  0
 10  9  2  0
 11 10  1  0
 12 11  2  0
 13 12  1  0
 13  4  2  0
 14  2  1  0
 15 14  1  0
 16 15  1  0
 17 16  2  0
 18 17  1  0
 19 18  1  0
 20 18  2  0
 21 20  1  0
 22 21  2  0
 22 16  1  0
 23 14  1  0
 24 23  2  0
 25 24  1  0
 26 23  1  0
 27 26  2  0
 28 27  1  0
 28 25  2  0
 29 28  1  0
 30 29  1  0
 31 30  2  0
 32 30  1  0
M  END
$$$$

     RDKit          3D

 19 20  0  0  0  0  0  0  0  0999 V2000
   -7.0560   -1.6190  -21.1150 N   0  0  0  0  0  0  0  0  0  0  0  0
  -11.9380   -0.4310  -24.1210 N   0  0  0  0  0  0  0  0  0  0  0  0
   -8.6500   -1.9410  -22.9250 C   0  0  1  0  0  0  0  0  0  0  0  0
  -12.8220   -1.1190  -23.3860 C   0  0  0  0  0  0  0  0  0  0  0  0
   -4.7150    0.0130  -21.6950 C   0  0  0  0  0  0  0  0  0  0  0  0
   -8.1520   -1.1270  -21.7280 C   0  0  0  0  0  0  0  0  0  0  0  0
   -4.6010    0.3690  -19.2060 C   0  0  0  0  0  0  0  0  0  0  0  0
   -5.1520    0.2310  -17.9480 C   0  0  0  0  0  0  0  0  0  0  0  0
   -6.8780   -1.0430  -18.7390 C   0  0  0  0  0  0  0  0  0  0  0  0
  -10.6380   -0.7230  -23.9720 C   0  0  0  0  0  0  0  0  0  0  0  0
  -11.0750   -2.4110  -22.3710 C   0  0  0  0  0  0  0  0  0  0  0  0
  -10.1430   -1.6900  -23.1070 C   0  0  0  0  0  0  0  0  0  0  0  0
  -12.4160   -2.1240  -22.5120 C   0  0  0  0  0  0  0  0  0  0  0  0
   -7.8260   -1.6780  -24.1850 C   0  0  0  0  0  0  0  0  0  0  0  0
   -6.2800   -0.4460  -17.7030 N   0  0  0  0  0  0  0  0  0  0  0  0
   -8.7230   -0.1100  -21.3570 O   0  0  0  0  0  0  0  0  0  0  0  0
   -5.2230   -0.2290  -20.2960 C   0  0  0  0  0  0  0  0  0  0  0  0
   -6.3930   -0.9770  -20.0450 C   0  0  0  0  0  0  0  0  0  0  0  0
  -13.5830   -3.0450  -21.6010 Cl  0  0  0  0  0  0  0  0  0  0  0  0
  4  2  2  0
  6  3  1  0
  6  1  1  0
  8  7  2  0
 10  2  1  0
 12 11  1  0
 12 10  2  0
 12  3  1  0
 13 11  2  0
 13  4  1  0
  3 14  1  6
 15  9  2  0
 15  8  1  0
 16  6  2  0
 17  7  1  0
 17  5  1  0
 18  9  1  0
 18  1  1  0
 18 17  2  0
 19 13  1  0
M  END
$$$$

     RDKit          3D

 26 29  0  0  0  0  0  0  0  0999 V2000
  -13.9270   -2.8870  -21.4260 Cl  0  0  0  0  0  0  0  0  0  0  0  0
  -12.8670   -1.9860  -22.4790 C   0  0  0  0  0  0  0  0  0  0  0  0
  -13.3950   -0.9840  -23.2660 C   0  0  0  0  0  0  0  0  0  0  0  0
  -12.5420   -0.1630  -23.9780 C   0  0  0  0  0  0  0  0  0  0  0  0
  -11.5060   -2.2140  -22.4130 C   0  0  0  0  0  0  0  0  0  0  0  0
  -10.6320   -1.3910  -23.1210 C   0  0  0  0  0  0  0  0  0  0  0  0
  -11.1730   -0.3720  -23.9040 C   0  0  0  0  0  0  0  0  0  0  0  0
  -10.3910    0.4300  -24.6940 O   0  0  0  0  0  0  0  0  0  0  0  0
   -9.2770   -0.2810  -25.2590 C   0  0  0  0  0  0  0  0  0  0  0  0
   -8.3490   -0.8570  -24.2090 C   0  0  0  0  0  0  0  0  0  0  0  0
   -9.1270   -1.5680  -23.0620 C   0  0  1  0  0  0  0  0  0  0  0  0
   -8.6810   -0.9840  -21.7200 C   0  0  0  0  0  0  0  0  0  0  0  0
   -9.2600   -0.0380  -21.1990 O   0  0  0  0  0  0  0  0  0  0  0  0
   -7.5670   -1.5510  -21.1960 N   0  0  0  0  0  0  0  0  0  0  0  0
   -6.7680   -1.0800  -20.1300 C   0  0  0  0  0  0  0  0  0  0  0  0
   -7.1130   -1.1750  -18.7800 C   0  0  0  0  0  0  0  0  0  0  0  0
   -6.4540   -0.5860  -17.7710 N   0  0  0  0  0  0  0  0  0  0  0  0
   -5.3920    0.1460  -18.0780 C   0  0  0  0  0  0  0  0  0  0  0  0
   -5.5980   -0.3230  -20.4570 C   0  0  0  0  0  0  0  0  0  0  0  0
   -4.9060    0.3270  -19.3960 C   0  0  0  0  0  0  0  0  0  0  0  0
   -3.7830    1.1330  -19.7040 C   0  0  0  0  0  0  0  0  0  0  0  0
   -3.3590    1.2770  -20.9910 C   0  0  0  0  0  0  0  0  0  0  0  0
   -5.1150   -0.1700  -21.7810 C   0  0  0  0  0  0  0  0  0  0  0  0
   -4.0190    0.6160  -22.0330 C   0  0  0  0  0  0  0  0  0  0  0  0
   -3.5800    0.7300  -23.3330 O   0  0  0  0  0  0  0  0  0  0  0  0
   -2.4410    1.5530  -23.6130 C   0  0  0  0  0  0  0  0  0  0  0  0
  2  1  1  0
  3  2  2  0
  4  3  1  0
  5  2  1  0
  6  5  2  0
  7  4  2  0
  7  6  1  0
  8  7  1  0
  9  8  1  0
 10  9  1  0
 11 10  1  0
 11  6  1  0
 11 12  1  1
 13 12  2  0
 14 12  1  0
 15 14  1  0
 16 15  2  0
 17 16  1  0
 18 17  2  0
 19 15  1  0
 20 19  2  0
 20 18  1  0
 21 20  1  0
 22 21  2  0
 23 19  1  0
 24 23  2  0
 24 22  1  0
 25 24  1  0
 26 25  1  0
M  END
$$$$

     RDKit          3D

 32 36  0  0  0  0  0  0  0  0999 V2000
   -8.8930    0.1480  -21.4710 O   0  0  0  0  0  0  0  0  0  0  0  0
   -8.4070   -0.9270  -21.8230 C   0  0  0  0  0  0  0  0  0  0  0  0
   -7.3200   -1.4700  -21.2320 N   0  0  0  0  0  0  0  0  0  0  0  0
   -6.5700   -0.9350  -20.1670 C   0  0  0  0  0  0  0  0  0  0  0  0
   -5.4270   -0.1320  -20.4760 C   0  0  0  0  0  0  0  0  0  0  0  0
   -4.9210    0.0490  -21.7920 C   0  0  0  0  0  0  0  0  0  0  0  0
   -3.8380    0.8510  -22.0230 C   0  0  0  0  0  0  0  0  0  0  0  0
   -3.2130    1.5160  -20.9750 C   0  0  0  0  0  0  0  0  0  0  0  0
   -3.6560    1.3670  -19.6920 C   0  0  0  0  0  0  0  0  0  0  0  0
   -4.7650    0.5310  -19.4050 C   0  0  0  0  0  0  0  0  0  0  0  0
   -5.2600    0.3230  -18.0930 C   0  0  0  0  0  0  0  0  0  0  0  0
   -6.3020   -0.4440  -17.8020 N   0  0  0  0  0  0  0  0  0  0  0  0
   -6.9320   -1.0450  -18.8230 C   0  0  0  0  0  0  0  0  0  0  0  0
   -8.9610   -1.7300  -23.0000 C   0  0  1  0  0  0  0  0  0  0  0  0
  -10.4470   -1.4650  -23.1090 C   0  0  0  0  0  0  0  0  0  0  0  0
  -10.9220   -0.3730  -23.8480 C   0  0  0  0  0  0  0  0  0  0  0  0
  -12.2890   -0.0890  -23.8730 C   0  0  0  0  0  0  0  0  0  0  0  0
  -13.1810   -0.8910  -23.1840 C   0  0  0  0  0  0  0  0  0  0  0  0
  -11.3580   -2.2840  -22.4480 C   0  0  0  0  0  0  0  0  0  0  0  0
  -12.7050   -1.9820  -22.4900 C   0  0  0  0  0  0  0  0  0  0  0  0
  -13.8230   -2.9860  -21.6100 Cl  0  0  0  0  0  0  0  0  0  0  0  0
   -8.2690   -1.3110  -24.2980 C   0  0  0  0  0  0  0  0  0  0  0  0
   -8.6870    0.0310  -24.7150 N   0  0  0  0  0  0  0  0  0  0  0  0
  -10.0000    0.4470  -24.6530 C   0  0  0  0  0  0  0  0  0  0  0  0
  -10.3690    1.4810  -25.1790 O   0  0  0  0  0  0  0  0  0  0  0  0
   -7.7820    0.6590  -25.6600 C   0  0  0  0  0  0  0  0  0  0  0  0
   -7.2660    2.0420  -25.2950 C   0  0  0  0  0  0  0  0  0  0  0  0
   -6.5580    2.6700  -26.0820 O   0  0  0  0  0  0  0  0  0  0  0  0
   -7.6500    2.5400  -24.1110 N   0  0  0  0  0  0  0  0  0  0  0  0
   -6.7120    2.9530  -23.0660 C   0  0  2  0  0  0  0  0  0  0  0  0
   -7.0050    4.1860  -22.2990 C   0  0  0  0  0  0  0  0  0  0  0  0
   -5.8930    4.1690  -23.2830 C   0  0  0  0  0  0  0  0  0  0  0  0
  2  1  2  0
  3  2  1  0
  4  3  1  0
  5  4  1  0
  6  5  2  0
  7  6  1  0
  8  7  2  0
  9  8  1  0
 10  9  2  0
 10  5  1  0
 11 10  1  0
 12 11  2  0
 13 12  1  0
 13  4  2  0
 14  2  1  1
 15 14  1  0
 16 15  1  0
 17 16  2  0
 18 17  1  0
 19 15  2  0
 20 19  1  0
 20 18  2  0
 21 20  1  0
 22 14  1  0
 23 22  1  0
 24 16  1  0
 24 23  1  0
 25 24  2  0
 26 23  1  0
 27 26  1  0
 28 27  2  0
 29 27  1  0
 30 29  1  6
 31 30  1  0
 32 31  1  0
 32 30  1  0
M  END
$$$$

     RDKit          3D

 27 31  0  0  0  0  0  0  0  0999 V2000
   -9.0670    0.2550  -21.3700 O   0  0  0  0  0  0  0  0  0  0  0  0
   -8.5780   -0.7840  -21.7740 C   0  0  0  0  0  0  0  0  0  0  0  0
   -8.9780   -1.5440  -23.0430 C   0  0  2  0  0  0  0  0  0  0  0  0
   -8.2800   -0.8310  -24.2290 C   0  0  0  0  0  0  0  0  0  0  0  0
   -9.2370   -0.4800  -25.3520 C   0  0  0  0  0  0  0  0  0  0  0  0
  -10.4250    0.1610  -24.8610 O   0  0  0  0  0  0  0  0  0  0  0  0
  -10.5080   -1.5630  -23.1620 C   0  0  0  0  0  0  0  0  0  0  0  0
  -11.1360   -0.6670  -24.0300 C   0  0  0  0  0  0  0  0  0  0  0  0
  -12.5140   -0.5960  -24.1400 C   0  0  0  0  0  0  0  0  0  0  0  0
  -13.2960   -1.4220  -23.3530 C   0  0  0  0  0  0  0  0  0  0  0  0
  -11.3080   -2.4030  -22.3870 C   0  0  0  0  0  0  0  0  0  0  0  0
  -12.6870   -2.2810  -22.4610 C   0  0  0  0  0  0  0  0  0  0  0  0
  -13.6670   -3.0700  -21.2550 Cl  0  0  0  0  0  0  0  0  0  0  0  0
   -7.5390   -1.4950  -21.1600 N   0  0  0  0  0  0  0  0  0  0  0  0
   -7.2980   -2.7280  -21.7620 C   0  0  0  0  0  0  0  0  0  0  0  0
   -6.3670   -3.4620  -21.4700 O   0  0  0  0  0  0  0  0  0  0  0  0
   -8.3520   -2.9380  -22.8190 C   0  0  0  0  0  0  0  0  0  0  0  0
   -6.7520   -0.9770  -20.0700 C   0  0  0  0  0  0  0  0  0  0  0  0
   -5.6750   -0.0950  -20.3520 C   0  0  0  0  0  0  0  0  0  0  0  0
   -5.2230    0.2340  -21.6580 C   0  0  0  0  0  0  0  0  0  0  0  0
   -4.1760    1.0930  -21.8410 C   0  0  0  0  0  0  0  0  0  0  0  0
   -3.5320    1.6690  -20.7540 C   0  0  0  0  0  0  0  0  0  0  0  0
   -3.9320    1.3880  -19.4810 C   0  0  0  0  0  0  0  0  0  0  0  0
   -5.0090    0.4980  -19.2430 C   0  0  0  0  0  0  0  0  0  0  0  0
   -5.4740    0.1680  -17.9440 C   0  0  0  0  0  0  0  0  0  0  0  0
   -6.4820   -0.6590  -17.6960 N   0  0  0  0  0  0  0  0  0  0  0  0
   -7.1010   -1.2170  -18.7480 C   0  0  0  0  0  0  0  0  0  0  0  0
  2  1  2  0
  3  2  1  0
  3  4  1  6
  5  4  1  0
  6  5  1  0
  7  3  1  0
  8  7  2  0
  8  6  1  0
  9  8  1  0
 10  9  2  0
 11  7  1  0
 12 11  2  0
 12 10  1  0
 13 12  1  0
 14  2  1  0
 15 14  1  0
 16 15  2  0
 17  3  1  0
 17 15  1  0
 18 14  1  0
 19 18  1  0
 20 19  2  0
 21 20  1  0
 22 21  2  0
 23 22  1  0
 24 19  1  0
 24 23  2  0
 25 24  1  0
 26 25  2  0
 27 26  1  0
 27 18  2  0
M  END
$$$$

     RDKit          3D

 21 22  0  0  0  0  0  0  0  0999 V2000
   -7.2800   -4.1770  -23.7150 N   0  0  0  0  0  0  0  0  0  0  0  0
   -6.3120   -0.3410  -17.7340 N   0  0  0  0  0  0  0  0  0  0  0  0
   -5.1480    0.2140  -18.0930 C   0  0  0  0  0  0  0  0  0  0  0  0
   -8.7900   -1.5720  -24.1080 C   0  0  0  0  0  0  0  0  0  0  0  0
   -5.7280   -3.2130  -21.8120 O   0  0  0  0  0  0  0  0  0  0  0  0
   -6.8870   -2.8170  -21.7510 C   0  0  0  0  0  0  0  0  0  0  0  0
   -9.8110   -0.8030  -24.6570 C   0  0  0  0  0  0  0  0  0  0  0  0
   -9.0580   -2.5280  -23.1240 C   0  0  0  0  0  0  0  0  0  0  0  0
  -10.3770   -2.6850  -22.6940 C   0  0  0  0  0  0  0  0  0  0  0  0
  -11.3840   -1.9390  -23.2750 C   0  0  0  0  0  0  0  0  0  0  0  0
   -5.4440   -0.3350  -20.4110 C   0  0  0  0  0  0  0  0  0  0  0  0
   -7.0460   -0.9090  -18.6970 C   0  0  0  0  0  0  0  0  0  0  0  0
   -6.6610   -0.9610  -20.0380 C   0  0  0  0  0  0  0  0  0  0  0  0
   -4.6820    0.2360  -19.3950 C   0  0  0  0  0  0  0  0  0  0  0  0
   -5.0860   -0.0690  -21.8520 C   0  0  0  0  0  0  0  0  0  0  0  0
   -7.0890   -0.3460  -25.2730 C   0  0  0  0  0  0  0  0  0  0  0  0
   -7.3340   -1.8990  -20.8650 N   0  0  0  0  0  0  0  0  0  0  0  0
   -7.4740   -1.4630  -24.4720 O   0  0  0  0  0  0  0  0  0  0  0  0
   -7.9690   -3.4710  -22.6250 C   0  0  1  0  0  0  0  0  0  0  0  0
  -13.1990   -2.3420  -22.8510 Br  0  0  0  0  0  0  0  0  0  0  0  0
  -11.1170   -0.9910  -24.2380 C   0  0  0  0  0  0  0  0  0  0  0  0
  3  2  2  0
  6  5  2  0
  7  4  2  0
  8  4  1  0
  9  8  2  0
 10  9  1  0
 12  2  1  0
 13 12  2  0
 13 11  1  0
 14 11  2  0
 14  3  1  0
 15 11  1  0
 17 13  1  0
 17  6  1  0
 18 16  1  0
 18  4  1  0
 19  8  1  0
 19  1  1  6
 19  6  1  0
 20 10  1  0
 21 10  2  0
 21  7  1  0
M  CHG  1   1   1
M  END
$$$$

     RDKit          3D

 16 16  0  0  0  0  0  0  0  0999 V2000
   -6.3710   -5.0190  -20.1770 C   0  0  0  0  0  0  0  0  0  0  0  0
   -7.0620   -3.7700  -19.6560 C   0  0  0  0  0  0  0  0  0  0  0  0
   -7.4320   -3.6800  -18.4990 O   0  0  0  0  0  0  0  0  0  0  0  0
   -7.2240   -2.7270  -20.5020 N   0  0  0  0  0  0  0  0  0  0  0  0
   -6.9720   -1.3910  -19.9610 C   0  0  0  0  0  0  0  0  0  0  0  0
   -5.5370   -1.1940  -19.5110 C   0  0  0  0  0  0  0  0  0  0  0  0
   -5.4340   -0.1100  -18.4700 C   0  0  0  0  0  0  0  0  0  0  0  0
   -6.2510   -0.0310  -17.5480 O   0  0  0  0  0  0  0  0  0  0  0  0
   -4.4600    0.7720  -18.6490 N   0  0  0  0  0  0  0  0  0  0  0  0
   -7.7600   -2.8440  -21.8700 C   0  0  2  0  0  0  0  0  0  0  0  0
   -7.5750   -1.6480  -22.8180 C   0  0  0  0  0  0  0  0  0  0  0  0
   -9.2210   -0.9560  -22.8880 S   0  0  1  0  0  0  0  0  0  0  0  0
   -9.4600   -0.1190  -21.7430 O   0  0  0  0  0  0  0  0  0  0  0  0
   -9.4640   -0.3930  -24.1910 O   0  0  0  0  0  0  0  0  0  0  0  0
  -10.0120   -2.3970  -22.7490 C   0  0  0  0  0  0  0  0  0  0  0  0
   -9.2460   -3.1590  -21.6750 C   0  0  0  0  0  0  0  0  0  0  0  0
  2  1  1  0
  3  2  2  0
  4  2  1  0
  5  4  1  0
  6  5  1  0
  7  6  1  0
  8  7  2  0
  9  7  1  0
 10  4  1  1
 11 10  1  0
 12 11  1  6
 13 12  2  0
 14 12  2  0
 15 12  1  0
 16 15  1  0
 16 10  1  0
M  END
$$$$

     RDKit          3D

 27 30  0  0  0  0  0  0  0  0999 V2000
   -9.1880    0.0190  -21.1940 O   0  0  0  0  0  0  0  0  0  0  0  0
   -8.6670   -0.9650  -21.7010 C   0  0  0  0  0  0  0  0  0  0  0  0
   -9.2540   -1.5430  -23.0450 C   0  0  1  0  0  0  0  0  0  0  0  0
  -10.7670   -1.5700  -23.1150 C   0  0  0  0  0  0  0  0  0  0  0  0
  -11.5230   -2.2640  -22.1710 C   0  0  0  0  0  0  0  0  0  0  0  0
  -12.8940   -2.2240  -22.2560 C   0  0  0  0  0  0  0  0  0  0  0  0
  -13.6130   -2.8090  -21.2620 F   0  0  0  0  0  0  0  0  0  0  0  0
  -13.5820   -1.5620  -23.2400 C   0  0  0  0  0  0  0  0  0  0  0  0
  -12.8340   -0.8670  -24.1500 C   0  0  0  0  0  0  0  0  0  0  0  0
  -13.4560   -0.1910  -25.1400 F   0  0  0  0  0  0  0  0  0  0  0  0
  -11.4490   -0.8410  -24.1130 C   0  0  0  0  0  0  0  0  0  0  0  0
  -10.8110   -0.0800  -25.0570 O   0  0  0  0  0  0  0  0  0  0  0  0
   -9.4560   -0.4680  -25.3100 C   0  0  0  0  0  0  0  0  0  0  0  0
   -8.6630   -0.5120  -24.0230 C   0  0  0  0  0  0  0  0  0  0  0  0
   -8.6290   -2.7530  -23.5110 O   0  0  0  0  0  0  0  0  0  0  0  0
   -9.0520   -3.9890  -22.9240 C   0  0  0  0  0  0  0  0  0  0  0  0
   -7.5420   -1.5360  -21.2160 N   0  0  0  0  0  0  0  0  0  0  0  0
   -6.7730   -1.0580  -20.1350 C   0  0  0  0  0  0  0  0  0  0  0  0
   -5.6390   -0.2360  -20.4200 C   0  0  0  0  0  0  0  0  0  0  0  0
   -5.1750    0.0410  -21.7320 C   0  0  0  0  0  0  0  0  0  0  0  0
   -4.1020    0.8630  -21.9410 C   0  0  0  0  0  0  0  0  0  0  0  0
   -3.4430    1.4500  -20.8700 C   0  0  0  0  0  0  0  0  0  0  0  0
   -3.8490    1.2110  -19.5870 C   0  0  0  0  0  0  0  0  0  0  0  0
   -4.9510    0.3590  -19.3270 C   0  0  0  0  0  0  0  0  0  0  0  0
   -5.4240    0.0820  -18.0200 C   0  0  0  0  0  0  0  0  0  0  0  0
   -6.4680   -0.6890  -17.7530 N   0  0  0  0  0  0  0  0  0  0  0  0
   -7.1110   -1.2410  -18.7930 C   0  0  0  0  0  0  0  0  0  0  0  0
  2  1  2  0
  3  2  1  0
  4  3  1  0
  5  4  2  0
  6  5  1  0
  7  6  1  0
  8  6  2  0
  9  8  1  0
 10  9  1  0
 11  9  2  0
 11  4  1  0
 12 11  1  0
 13 12  1  0
 14 13  1  0
 14  3  1  0
  3 15  1  6
 16 15  1  0
 17  2  1  0
 18 17  1  0
 19 18  1  0
 20 19  2  0
 21 20  1  0
 22 21  2  0
 23 22  1  0
 24 19  1  0
 24 23  2  0
 25 24  1  0
 26 25  2  0
 27 26  1  0
 27 18  2  0
M  END
$$$$

     RDKit          3D

 19 20  0  0  0  0  0  0  0  0999 V2000
  -13.3920   -3.1360  -21.5170 Cl  0  0  0  0  0  0  0  0  0  0  0  0
  -12.2270   -2.3260  -22.5260 C   0  0  0  0  0  0  0  0  0  0  0  0
  -12.6660   -1.4290  -23.4770 C   0  0  0  0  0  0  0  0  0  0  0  0
  -11.7260   -0.8070  -24.2840 C   0  0  0  0  0  0  0  0  0  0  0  0
  -10.3740   -1.0600  -24.1030 C   0  0  0  0  0  0  0  0  0  0  0  0
  -10.8880   -2.5880  -22.3350 C   0  0  0  0  0  0  0  0  0  0  0  0
   -9.9400   -1.9310  -23.1100 C   0  0  0  0  0  0  0  0  0  0  0  0
   -8.4680   -2.1210  -22.8200 C   0  0  0  0  0  0  0  0  0  0  0  0
   -8.0340   -1.2880  -21.6300 C   0  0  0  0  0  0  0  0  0  0  0  0
   -8.5960   -0.2320  -21.3330 O   0  0  0  0  0  0  0  0  0  0  0  0
   -6.9410   -1.7490  -20.9910 N   0  0  0  0  0  0  0  0  0  0  0  0
   -6.3010   -1.0330  -19.9470 C   0  0  0  0  0  0  0  0  0  0  0  0
   -5.2400   -0.1550  -20.2220 C   0  0  0  0  0  0  0  0  0  0  0  0
   -4.7600    0.0790  -21.6340 C   0  0  0  0  0  0  0  0  0  0  0  0
   -6.7610   -1.1880  -18.6470 C   0  0  0  0  0  0  0  0  0  0  0  0
   -6.2280   -0.5360  -17.6150 N   0  0  0  0  0  0  0  0  0  0  0  0
   -5.2120    0.2970  -17.8670 C   0  0  0  0  0  0  0  0  0  0  0  0
   -4.6840    0.5140  -19.1590 C   0  0  0  0  0  0  0  0  0  0  0  0
   -3.6270    1.4050  -19.2910 N   0  0  0  0  0  0  0  0  0  0  0  0
  2  1  1  0
  3  2  2  0
  4  3  1  0
  5  4  2  0
  6  2  1  0
  7  6  2  0
  7  5  1  0
  8  7  1  0
  9  8  1  0
 10  9  2  0
 11  9  1  0
 12 11  1  0
 13 12  2  0
 14 13  1  0
 15 12  1  0
 16 15  2  0
 17 16  1  0
 18 17  2  0
 18 13  1  0
 19 18  1  0
M  END
$$$$

     RDKit          3D

 22 24  0  0  0  0  0  0  0  0999 V2000
   -5.1710    0.1040  -18.0380 Br  0  0  0  0  0  0  0  0  0  0  0  0
   -5.8070   -1.0570  -19.3970 C   0  0  0  0  0  0  0  0  0  0  0  0
   -5.9080   -2.4060  -19.1250 C   0  0  0  0  0  0  0  0  0  0  0  0
   -6.4360   -3.2410  -20.0990 C   0  0  0  0  0  0  0  0  0  0  0  0
   -6.7970   -4.6970  -20.0740 C   0  0  0  0  0  0  0  0  0  0  0  0
   -5.6720   -5.5390  -19.9230 O   0  0  0  0  0  0  0  0  0  0  0  0
   -7.3710   -4.9370  -21.4620 C   0  0  0  0  0  0  0  0  0  0  0  0
   -7.8090   -5.9850  -21.8950 O   0  0  0  0  0  0  0  0  0  0  0  0
   -6.1880   -0.5220  -20.6160 C   0  0  0  0  0  0  0  0  0  0  0  0
   -6.6990   -1.3580  -21.5960 C   0  0  0  0  0  0  0  0  0  0  0  0
   -6.8180   -2.7180  -21.3270 C   0  0  0  0  0  0  0  0  0  0  0  0
   -7.3270   -3.7430  -22.1380 N   0  0  0  0  0  0  0  0  0  0  0  0
   -7.8170   -3.5690  -23.5060 C   0  0  0  0  0  0  0  0  0  0  0  0
   -9.0400   -2.6850  -23.5940 C   0  0  0  0  0  0  0  0  0  0  0  0
   -9.9240   -2.5720  -22.5210 C   0  0  0  0  0  0  0  0  0  0  0  0
  -10.9920   -1.6920  -22.5690 C   0  0  0  0  0  0  0  0  0  0  0  0
  -11.2080   -0.9290  -23.6900 C   0  0  0  0  0  0  0  0  0  0  0  0
  -10.3640   -1.0370  -24.7840 C   0  0  0  0  0  0  0  0  0  0  0  0
   -9.2810   -1.9050  -24.7290 C   0  0  0  0  0  0  0  0  0  0  0  0
   -8.3820   -2.0690  -25.7610 O   0  0  0  0  0  0  0  0  0  0  0  0
   -8.1960   -0.9920  -26.6980 C   0  0  0  0  0  0  0  0  0  0  0  0
   -7.4070   -1.5040  -27.8400 C   0  0  0  0  0  0  0  0  0  0  0  0
  2  1  1  0
  3  2  2  0
  4  3  1  0
  5  4  1  0
  6  5  1  0
  7  5  2  0
  8  7  1  0
  9  2  1  0
 10  9  2  0
 11 10  1  0
 11  4  2  0
 12 11  1  0
 12  7  1  0
 13 12  1  0
 14 13  1  0
 15 14  2  0
 16 15  1  0
 17 16  2  0
 18 17  1  0
 19 18  2  0
 19 14  1  0
 20 19  1  0
 21 20  1  0
 22 21  1  0
M  END
$$$$

     RDKit          3D

 18 19  0  0  0  0  0  0  0  0999 V2000
  -14.0270   -3.2470  -20.8810 N   0  0  0  0  0  0  0  0  0  0  0  0
  -13.3220   -2.7570  -21.6330 C   0  0  0  0  0  0  0  0  0  0  0  0
  -12.4020   -2.1450  -22.5580 C   0  0  0  0  0  0  0  0  0  0  0  0
  -12.8460   -1.3680  -23.6290 C   0  0  0  0  0  0  0  0  0  0  0  0
  -12.0180   -0.7800  -24.5010 N   0  0  0  0  0  0  0  0  0  0  0  0
  -10.7010   -0.9570  -24.3150 C   0  0  0  0  0  0  0  0  0  0  0  0
  -11.0310   -2.3140  -22.3940 C   0  0  0  0  0  0  0  0  0  0  0  0
  -10.1510   -1.7070  -23.2860 C   0  0  0  0  0  0  0  0  0  0  0  0
   -8.6570   -1.8140  -23.1020 C   0  0  0  0  0  0  0  0  0  0  0  0
   -8.2340   -1.0070  -21.8900 C   0  0  0  0  0  0  0  0  0  0  0  0
   -9.0220   -0.2680  -21.2990 O   0  0  0  0  0  0  0  0  0  0  0  0
   -6.9280   -1.1100  -21.5700 N   0  0  0  0  0  0  0  0  0  0  0  0
   -6.3230   -0.8680  -20.3190 C   0  0  0  0  0  0  0  0  0  0  0  0
   -7.0040   -0.9280  -19.1020 C   0  0  0  0  0  0  0  0  0  0  0  0
   -6.5280   -0.4130  -17.9620 N   0  0  0  0  0  0  0  0  0  0  0  0
   -5.3400    0.2010  -18.0140 C   0  0  0  0  0  0  0  0  0  0  0  0
   -4.5880    0.3110  -19.1690 C   0  0  0  0  0  0  0  0  0  0  0  0
   -5.0800   -0.2510  -20.3330 C   0  0  0  0  0  0  0  0  0  0  0  0
  2  1  3  0
  3  2  1  0
  4  3  2  0
  5  4  1  0
  6  5  2  0
  7  3  1  0
  8  7  2  0
  8  6  1  0
  9  8  1  0
 10  9  1  0
 11 10  2  0
 12 10  1  0
 13 12  1  0
 14 13  2  0
 15 14  1  0
 16 15  2  0
 17 16  1  0
 18 13  1  0
 18 17  2  0
M  END
$$$$

     RDKit          3D

 24 27  0  0  0  0  0  0  0  0999 V2000
   -9.2000    0.3710  -21.3600 O   0  0  0  0  0  0  0  0  0  0  0  0
   -8.7680   -0.7220  -21.7070 C   0  0  0  0  0  0  0  0  0  0  0  0
   -9.2900   -1.4460  -22.9470 C   0  0  2  0  0  0  0  0  0  0  0  0
   -8.5460   -0.7910  -24.1480 C   0  0  0  0  0  0  0  0  0  0  0  0
   -9.4970   -0.2890  -25.2070 C   0  0  0  0  0  0  0  0  0  0  0  0
  -10.6290    0.4070  -24.6750 O   0  0  0  0  0  0  0  0  0  0  0  0
  -10.8010   -1.2970  -22.9680 C   0  0  0  0  0  0  0  0  0  0  0  0
  -11.3810   -0.3660  -23.8280 C   0  0  0  0  0  0  0  0  0  0  0  0
  -12.7550   -0.1740  -23.8740 C   0  0  0  0  0  0  0  0  0  0  0  0
  -13.5730   -0.9170  -23.0440 C   0  0  0  0  0  0  0  0  0  0  0  0
  -11.6430   -2.0620  -22.1590 C   0  0  0  0  0  0  0  0  0  0  0  0
  -13.0070   -1.8540  -22.2030 C   0  0  0  0  0  0  0  0  0  0  0  0
  -14.0420   -2.8110  -21.1830 Cl  0  0  0  0  0  0  0  0  0  0  0  0
   -7.8030   -1.3710  -21.0320 N   0  0  0  0  0  0  0  0  0  0  0  0
   -6.7570   -0.8830  -20.2170 C   0  0  0  0  0  0  0  0  0  0  0  0
   -5.8280    0.1370  -20.5080 C   0  0  0  0  0  0  0  0  0  0  0  0
   -5.7210    0.6900  -21.9090 C   0  0  0  0  0  0  0  0  0  0  0  0
   -4.4690    1.4200  -22.1440 N   0  0  0  0  0  0  0  0  0  0  0  0
   -4.1640    2.3740  -21.0490 C   0  0  0  0  0  0  0  0  0  0  0  0
   -3.9440    1.6510  -19.7390 C   0  0  0  0  0  0  0  0  0  0  0  0
   -5.0660    0.6800  -19.4620 C   0  0  0  0  0  0  0  0  0  0  0  0
   -5.3460    0.2670  -18.1770 C   0  0  0  0  0  0  0  0  0  0  0  0
   -6.2630   -0.6520  -17.8670 N   0  0  0  0  0  0  0  0  0  0  0  0
   -6.9170   -1.2350  -18.8780 C   0  0  0  0  0  0  0  0  0  0  0  0
  2  1  2  0
  3  2  1  1
  4  3  1  0
  5  4  1  0
  6  5  1  0
  7  3  1  0
  8  7  2  0
  8  6  1  0
  9  8  1  0
 10  9  2  0
 11  7  1  0
 12 11  2  0
 12 10  1  0
 13 12  1  0
 14  2  1  0
 15 14  1  0
 16 15  1  0
 17 16  1  0
 18 17  1  0
 19 18  1  0
 20 19  1  0
 21 16  2  0
 21 20  1  0
 22 21  1  0
 23 22  2  0
 24 23  1  0
 24 15  2  0
M  CHG  1  18   1
M  END
$$$$

     RDKit          3D

 20 22  0  0  0  0  0  0  0  0999 V2000
   -8.8220   -0.0890  -21.5300 O   0  0  0  0  0  0  0  0  0  0  0  0
   -8.4620   -1.2110  -21.8990 C   0  0  0  0  0  0  0  0  0  0  0  0
   -9.1180   -1.9140  -23.0740 C   0  0  0  0  0  0  0  0  0  0  0  0
  -10.5980   -1.6300  -23.2340 C   0  0  0  0  0  0  0  0  0  0  0  0
  -11.0390   -0.6410  -24.1060 C   0  0  0  0  0  0  0  0  0  0  0  0
  -12.3820   -0.3010  -24.1760 C   0  0  0  0  0  0  0  0  0  0  0  0
  -13.3080   -0.9400  -23.3670 C   0  0  0  0  0  0  0  0  0  0  0  0
  -11.5340   -2.3060  -22.4570 C   0  0  0  0  0  0  0  0  0  0  0  0
  -12.8680   -1.9420  -22.5220 C   0  0  0  0  0  0  0  0  0  0  0  0
  -14.0150   -2.7320  -21.4720 Cl  0  0  0  0  0  0  0  0  0  0  0  0
   -7.4470   -1.8910  -21.3270 N   0  0  0  0  0  0  0  0  0  0  0  0
   -6.8000   -1.3480  -20.2170 N   0  0  0  0  0  0  0  0  0  0  0  0
   -5.6900   -0.4930  -20.2430 C   0  0  0  0  0  0  0  0  0  0  0  0
   -5.4960   -0.1390  -18.9030 C   0  0  0  0  0  0  0  0  0  0  0  0
   -6.4280   -0.7910  -18.0870 N   0  0  0  0  0  0  0  0  0  0  0  0
   -7.1670   -1.4850  -18.9180 C   0  0  0  0  0  0  0  0  0  0  0  0
   -4.9080    0.0270  -21.2660 C   0  0  0  0  0  0  0  0  0  0  0  0
   -3.9190    0.9410  -20.9190 C   0  0  0  0  0  0  0  0  0  0  0  0
   -3.7270    1.3260  -19.5900 C   0  0  0  0  0  0  0  0  0  0  0  0
   -4.5060    0.7850  -18.5700 C   0  0  0  0  0  0  0  0  0  0  0  0
  2  1  2  0
  3  2  1  0
  4  3  1  0
  5  4  2  0
  6  5  1  0
  7  6  2  0
  8  4  1  0
  9  8  2  0
  9  7  1  0
 10  9  1  0
 11  2  1  0
 12 11  1  0
 13 12  1  0
 14 13  2  0
 15 14  1  0
 16 15  2  0
 16 12  1  0
 17 13  1  0
 18 17  2  0
 19 18  1  0
 20 14  1  0
 20 19  2  0
M  END
$$$$

     RDKit          3D

  7  7  0  0  0  0  0  0  0  0999 V2000
  -12.2020  -28.3500   -3.8820 N   0  0  0  0  0  0  0  0  0  0  0  0
  -11.1170  -27.6100   -3.4740 C   0  0  0  0  0  0  0  0  0  0  0  0
   -9.9930  -28.2810   -3.1330 O   0  0  0  0  0  0  0  0  0  0  0  0
  -11.1040  -26.2010   -3.3610 C   0  0  0  0  0  0  0  0  0  0  0  0
  -12.2810  -25.5330   -3.6850 C   0  0  0  0  0  0  0  0  0  0  0  0
  -13.4120  -26.2570   -4.0990 C   0  0  0  0  0  0  0  0  0  0  0  0
  -13.3250  -27.6520   -4.1800 C   0  0  0  0  0  0  0  0  0  0  0  0
  2  1  1  0
  3  2  2  0
  4  2  1  0
  5  4  2  0
  6  5  1  0
  7  1  1  0
  7  6  2  0
M  END
$$$$

     RDKit          3D

 17 19  0  0  0  0  0  0  0  0999 V2000
   -9.4010   -0.2260  -21.5160 O   0  0  0  0  0  0  0  0  0  0  0  0
   -8.8650   -1.2720  -21.8700 C   0  0  0  0  0  0  0  0  0  0  0  0
   -7.6910   -1.7210  -21.3920 N   0  0  0  0  0  0  0  0  0  0  0  0
   -6.9030   -1.1310  -20.3780 C   0  0  0  0  0  0  0  0  0  0  0  0
   -7.3170   -1.1060  -19.0440 C   0  0  0  0  0  0  0  0  0  0  0  0
   -6.5900   -0.5660  -18.0600 N   0  0  0  0  0  0  0  0  0  0  0  0
   -5.4050   -0.0390  -18.3900 C   0  0  0  0  0  0  0  0  0  0  0  0
   -4.9070   -0.0200  -19.6770 C   0  0  0  0  0  0  0  0  0  0  0  0
   -5.6580   -0.5620  -20.7110 C   0  0  0  0  0  0  0  0  0  0  0  0
   -5.1700   -0.4890  -22.1380 C   0  0  0  0  0  0  0  0  0  0  0  0
   -9.4980   -2.2010  -22.8810 C   0  0  0  0  0  0  0  0  0  0  0  0
  -10.9910   -1.9290  -23.1920 C   0  0  1  0  0  0  0  0  0  0  0  0
  -11.3930   -0.8320  -24.1830 C   0  0  0  0  0  0  0  0  0  0  0  0
  -12.1650   -1.5930  -25.2480 C   0  0  0  0  0  0  0  0  0  0  0  0
  -12.9290   -2.6630  -24.4930 C   0  0  0  0  0  0  0  0  0  0  0  0
  -11.9810   -3.0470  -23.3580 C   0  0  2  0  0  0  0  0  0  0  0  0
  -11.9960   -2.1910  -22.1200 C   0  0  0  0  0  0  0  0  0  0  0  0
  2  1  2  0
  3  2  1  0
  4  3  1  0
  5  4  2  0
  6  5  1  0
  7  6  2  0
  8  7  1  0
  9  4  1  0
  9  8  2  0
 10  9  1  0
 11  2  1  0
 12 11  1  1
 13 12  1  0
 14 13  1  0
 15 14  1  0
 16 15  1  6
 16 12  1  0
 17 16  1  0
 17 12  1  0
M  END
$$$$

     RDKit          3D

 24 27  0  0  0  0  0  0  0  0999 V2000
   -8.9940   -0.1370  -21.2570 O   0  0  0  0  0  0  0  0  0  0  0  0
   -8.3890   -1.1390  -21.6570 C   0  0  0  0  0  0  0  0  0  0  0  0
   -8.8700   -1.9590  -22.8550 C   0  0  2  0  0  0  0  0  0  0  0  0
   -8.1140   -1.5470  -24.1240 C   0  0  0  0  0  0  0  0  0  0  0  0
   -8.3700   -0.1370  -24.4320 N   0  0  0  0  0  0  0  0  0  0  0  0
   -9.7800    0.1190  -24.7410 C   0  0  0  0  0  0  0  0  0  0  0  0
  -10.3450   -1.6610  -23.0190 C   0  0  0  0  0  0  0  0  0  0  0  0
  -10.7670   -0.6480  -23.8950 C   0  0  0  0  0  0  0  0  0  0  0  0
  -12.1300   -0.3860  -24.0210 C   0  0  0  0  0  0  0  0  0  0  0  0
  -13.0650   -1.1050  -23.2960 C   0  0  0  0  0  0  0  0  0  0  0  0
  -11.2910   -2.3870  -22.2970 C   0  0  0  0  0  0  0  0  0  0  0  0
  -12.6290   -2.0820  -22.4290 C   0  0  0  0  0  0  0  0  0  0  0  0
  -13.7820   -2.8800  -21.3950 Cl  0  0  0  0  0  0  0  0  0  0  0  0
   -7.2420   -1.5910  -21.0910 N   0  0  0  0  0  0  0  0  0  0  0  0
   -6.5480   -1.0330  -19.9980 C   0  0  0  0  0  0  0  0  0  0  0  0
   -5.4580   -0.1440  -20.2570 C   0  0  0  0  0  0  0  0  0  0  0  0
   -4.9510    0.1280  -21.5540 C   0  0  0  0  0  0  0  0  0  0  0  0
   -3.9160    1.0030  -21.7350 C   0  0  0  0  0  0  0  0  0  0  0  0
   -3.3350    1.6450  -20.6510 C   0  0  0  0  0  0  0  0  0  0  0  0
   -3.7860    1.4150  -19.3810 C   0  0  0  0  0  0  0  0  0  0  0  0
   -4.8560    0.5160  -19.1490 C   0  0  0  0  0  0  0  0  0  0  0  0
   -5.3660    0.2330  -17.8570 C   0  0  0  0  0  0  0  0  0  0  0  0
   -6.3670   -0.6020  -17.6170 N   0  0  0  0  0  0  0  0  0  0  0  0
   -6.9320   -1.2110  -18.6680 C   0  0  0  0  0  0  0  0  0  0  0  0
  2  1  2  0
  3  2  1  1
  4  3  1  0
  5  4  1  0
  6  5  1  0
  7  3  1  0
  8  7  2  0
  8  6  1  0
  9  8  1  0
 10  9  2  0
 11  7  1  0
 12 11  2  0
 12 10  1  0
 13 12  1  0
 14  2  1  0
 15 14  1  0
 16 15  1  0
 17 16  2  0
 18 17  1  0
 19 18  2  0
 20 19  1  0
 21 16  1  0
 21 20  2  0
 22 21  1  0
 23 22  2  0
 24 23  1  0
 24 15  2  0
M  CHG  1   5   1
M  END
$$$$

     RDKit          3D

 23 25  0  0  0  0  0  0  0  0999 V2000
  -14.5300   -2.6560  -20.7560 Cl  0  0  0  0  0  0  0  0  0  0  0  0
  -13.6010   -1.7820  -21.9340 C   0  0  0  0  0  0  0  0  0  0  0  0
  -14.1360   -0.6500  -22.5180 C   0  0  0  0  0  0  0  0  0  0  0  0
  -13.3660    0.0530  -23.4290 C   0  0  0  0  0  0  0  0  0  0  0  0
  -12.0840   -0.3780  -23.7400 C   0  0  0  0  0  0  0  0  0  0  0  0
  -12.3250   -2.2170  -22.2270 C   0  0  0  0  0  0  0  0  0  0  0  0
  -11.5500   -1.5090  -23.1310 C   0  0  0  0  0  0  0  0  0  0  0  0
  -10.1330   -2.0110  -23.3670 C   0  0  1  0  0  0  0  0  0  0  0  0
   -9.9850   -2.5790  -24.7730 C   0  0  0  0  0  0  0  0  0  0  0  0
   -9.1810   -0.9030  -23.1440 N   0  0  0  0  0  0  0  0  0  0  0  0
   -8.9470    0.0610  -24.2220 C   0  0  0  0  0  0  0  0  0  0  0  0
   -8.6700   -0.6920  -21.9170 C   0  0  0  0  0  0  0  0  0  0  0  0
   -8.8210    0.3750  -21.3440 O   0  0  0  0  0  0  0  0  0  0  0  0
   -7.8440   -1.8000  -21.2610 C   0  0  0  0  0  0  0  0  0  0  0  0
   -7.0590   -1.2840  -20.1550 N   0  0  0  0  0  0  0  0  0  0  0  0
   -5.9090   -0.5500  -20.1800 C   0  0  0  0  0  0  0  0  0  0  0  0
   -5.6800   -0.2290  -18.8430 C   0  0  0  0  0  0  0  0  0  0  0  0
   -6.6730   -0.7980  -18.0780 N   0  0  0  0  0  0  0  0  0  0  0  0
   -7.4910   -1.4300  -18.8780 N   0  0  0  0  0  0  0  0  0  0  0  0
   -5.0800   -0.0960  -21.1930 C   0  0  0  0  0  0  0  0  0  0  0  0
   -4.0180    0.7260  -20.8440 C   0  0  0  0  0  0  0  0  0  0  0  0
   -3.7860    1.0710  -19.5130 C   0  0  0  0  0  0  0  0  0  0  0  0
   -4.6040    0.5870  -18.5000 C   0  0  0  0  0  0  0  0  0  0  0  0
  2  1  1  0
  3  2  2  0
  4  3  1  0
  5  4  2  0
  6  2  1  0
  7  6  2  0
  7  5  1  0
  8  7  1  0
  8  9  1  6
 10  8  1  0
 11 10  1  0
 12 10  1  0
 13 12  2  0
 14 12  1  0
 15 14  1  0
 16 15  1  0
 17 16  2  0
 18 17  1  0
 19 18  2  0
 19 15  1  0
 20 16  1  0
 21 20  2  0
 22 21  1  0
 23 17  1  0
 23 22  2  0
M  END
$$$$

     RDKit          3D

 32 35  0  0  0  0  0  0  0  0999 V2000
  -13.6780    6.6980  -23.6600 O   0  0  0  0  0  0  0  0  0  0  0  0
  -12.7680    6.1920  -24.6370 S   0  0  2  0  0  0  0  0  0  0  0  0
  -11.4500    6.7410  -24.7000 O   0  0  0  0  0  0  0  0  0  0  0  0
  -13.5040    6.3280  -26.2510 C   0  0  0  0  0  0  0  0  0  0  0  0
  -12.5530    6.9260  -27.2610 C   0  0  0  0  0  0  0  0  0  0  0  0
  -12.6070    4.5880  -24.3610 N   0  0  0  0  0  0  0  0  0  0  0  0
  -13.6670    3.8250  -23.6760 C   0  0  0  0  0  0  0  0  0  0  0  0
  -13.0340    2.6240  -22.9610 C   0  0  0  0  0  0  0  0  0  0  0  0
  -12.2540    1.8020  -23.8980 N   0  0  0  0  0  0  0  0  0  0  0  0
  -11.2360    2.5770  -24.6240 C   0  0  0  0  0  0  0  0  0  0  0  0
  -11.8650    3.7700  -25.3430 C   0  0  0  0  0  0  0  0  0  0  0  0
  -11.9750    0.4580  -23.5310 C   0  0  0  0  0  0  0  0  0  0  0  0
  -13.0120   -0.4020  -23.1460 C   0  0  0  0  0  0  0  0  0  0  0  0
  -12.7020   -1.6650  -22.6820 C   0  0  0  0  0  0  0  0  0  0  0  0
  -13.9620   -2.6340  -21.9690 Cl  0  0  0  0  0  0  0  0  0  0  0  0
  -11.4060   -2.1260  -22.6340 C   0  0  0  0  0  0  0  0  0  0  0  0
  -10.3670   -1.2890  -23.0150 C   0  0  0  0  0  0  0  0  0  0  0  0
  -10.6540   -0.0080  -23.4820 C   0  0  0  0  0  0  0  0  0  0  0  0
   -8.9340   -1.7200  -22.7950 C   0  0  0  0  0  0  0  0  0  0  0  0
   -8.3340   -0.9980  -21.6050 C   0  0  0  0  0  0  0  0  0  0  0  0
   -8.8340    0.0320  -21.1580 O   0  0  0  0  0  0  0  0  0  0  0  0
   -7.2160   -1.5600  -21.0960 N   0  0  0  0  0  0  0  0  0  0  0  0
   -6.4440   -1.0810  -20.0190 C   0  0  0  0  0  0  0  0  0  0  0  0
   -5.3470   -0.2080  -20.2990 C   0  0  0  0  0  0  0  0  0  0  0  0
   -4.8490    0.0420  -21.6030 C   0  0  0  0  0  0  0  0  0  0  0  0
   -3.8110    0.9030  -21.8070 C   0  0  0  0  0  0  0  0  0  0  0  0
   -3.2140    1.5550  -20.7380 C   0  0  0  0  0  0  0  0  0  0  0  0
   -3.6570    1.3470  -19.4640 C   0  0  0  0  0  0  0  0  0  0  0  0
   -4.7320    0.4610  -19.2090 C   0  0  0  0  0  0  0  0  0  0  0  0
   -5.2390    0.2130  -17.9130 C   0  0  0  0  0  0  0  0  0  0  0  0
   -6.2380   -0.6160  -17.6480 N   0  0  0  0  0  0  0  0  0  0  0  0
   -6.8060   -1.2460  -18.6830 C   0  0  0  0  0  0  0  0  0  0  0  0
  2  1  2  0
  3  2  2  0
  2  4  1  6
  5  4  1  0
  6  2  1  0
  7  6  1  0
  8  7  1  0
  9  8  1  0
 10  9  1  0
 11 10  1  0
 11  6  1  0
 12  9  1  0
 13 12  2  0
 14 13  1  0
 15 14  1  0
 16 14  2  0
 17 16  1  0
 18 12  1  0
 18 17  2  0
 19 17  1  0
 20 19  1  0
 21 20  2  0
 22 20  1  0
 23 22  1  0
 24 23  1  0
 25 24  2  0
 26 25  1  0
 27 26  2  0
 28 27  1  0
 29 28  2  0
 29 24  1  0
 30 29  1  0
 31 30  2  0
 32 31  1  0
 32 23  2  0
M  END
$$$$

     RDKit          3D

 13 13  0  0  0  0  0  0  0  0999 V2000
   -6.0440   -6.1630  -26.8030 C   0  0  0  0  0  0  0  0  0  0  0  0
   -9.0130   -4.2910  -24.4580 C   0  0  0  0  0  0  0  0  0  0  0  0
   -8.9580   -2.9960  -23.6590 C   0  0  0  0  0  0  0  0  0  0  0  0
  -10.3700   -2.4350  -23.7310 C   0  0  0  0  0  0  0  0  0  0  0  0
  -10.6960   -1.4130  -24.6140 C   0  0  0  0  0  0  0  0  0  0  0  0
  -12.0010   -0.9480  -24.6610 C   0  0  0  0  0  0  0  0  0  0  0  0
  -12.9740   -1.5180  -23.8560 C   0  0  0  0  0  0  0  0  0  0  0  0
  -12.6430   -2.5480  -22.9840 C   0  0  0  0  0  0  0  0  0  0  0  0
  -11.3410   -3.0030  -22.9310 C   0  0  0  0  0  0  0  0  0  0  0  0
   -7.7380   -4.7670  -24.9310 N   0  0  0  0  0  0  0  0  0  0  0  0
   -8.6800   -6.7290  -26.4180 O   0  0  0  0  0  0  0  0  0  0  0  0
   -8.2850   -4.8020  -27.4760 O   0  0  0  0  0  0  0  0  0  0  0  0
   -7.7270   -5.6150  -26.4090 S   0  0  2  0  0  0  0  0  0  0  0  0
  3  2  1  0
  4  3  1  0
  5  4  2  0
  6  5  1  0
  7  6  2  0
  8  7  1  0
  9  8  2  0
  9  4  1  0
 10  2  1  0
 13 11  2  0
 13  1  1  6
 13 12  2  0
 13 10  1  0
M  END
$$$$

     RDKit          3D

 27 31  0  0  0  0  0  0  0  0999 V2000
   -9.0110    0.4480  -21.3140 O   0  0  0  0  0  0  0  0  0  0  0  0
   -8.5880   -0.6110  -21.7380 C   0  0  0  0  0  0  0  0  0  0  0  0
   -9.0770   -1.3500  -23.0060 C   0  0  2  0  0  0  0  0  0  0  0  0
   -8.4450   -0.6310  -24.2190 C   0  0  0  0  0  0  0  0  0  0  0  0
   -9.4620   -0.1160  -25.2220 C   0  0  0  0  0  0  0  0  0  0  0  0
  -10.6230    0.4600  -24.6020 O   0  0  0  0  0  0  0  0  0  0  0  0
  -10.5990   -1.4000  -23.0600 C   0  0  0  0  0  0  0  0  0  0  0  0
  -11.2810   -0.4530  -23.8190 C   0  0  0  0  0  0  0  0  0  0  0  0
  -12.6660   -0.4120  -23.8640 C   0  0  0  0  0  0  0  0  0  0  0  0
  -13.3870   -1.3360  -23.1320 C   0  0  0  0  0  0  0  0  0  0  0  0
  -11.3370   -2.3370  -22.3420 C   0  0  0  0  0  0  0  0  0  0  0  0
  -12.7180   -2.2660  -22.3660 C   0  0  0  0  0  0  0  0  0  0  0  0
  -13.6290   -3.2870  -21.2850 Cl  0  0  0  0  0  0  0  0  0  0  0  0
   -7.6370   -1.4380  -21.1370 N   0  0  0  0  0  0  0  0  0  0  0  0
   -7.5820   -2.6870  -21.7670 C   0  0  0  0  0  0  0  0  0  0  0  0
   -6.8420   -3.6090  -21.4500 O   0  0  0  0  0  0  0  0  0  0  0  0
   -8.4730   -2.6610  -22.7890 N   0  0  0  0  0  0  0  0  0  0  0  0
   -6.7680   -1.0140  -20.0590 C   0  0  0  0  0  0  0  0  0  0  0  0
   -5.6690   -0.1500  -20.3500 C   0  0  0  0  0  0  0  0  0  0  0  0
   -5.1640    0.0980  -21.6550 C   0  0  0  0  0  0  0  0  0  0  0  0
   -4.0940    0.9280  -21.8520 C   0  0  0  0  0  0  0  0  0  0  0  0
   -3.4850    1.5660  -20.7770 C   0  0  0  0  0  0  0  0  0  0  0  0
   -3.9370    1.3630  -19.5030 C   0  0  0  0  0  0  0  0  0  0  0  0
   -5.0290    0.4940  -19.2520 C   0  0  0  0  0  0  0  0  0  0  0  0
   -5.5170    0.2180  -17.9490 C   0  0  0  0  0  0  0  0  0  0  0  0
   -6.5380   -0.5860  -17.6890 N   0  0  0  0  0  0  0  0  0  0  0  0
   -7.1420   -1.1780  -18.7300 C   0  0  0  0  0  0  0  0  0  0  0  0
  2  1  2  0
  3  2  1  0
  3  4  1  6
  5  4  1  0
  6  5  1  0
  7  3  1  0
  8  7  2  0
  8  6  1  0
  9  8  1  0
 10  9  2  0
 11  7  1  0
 12 11  2  0
 12 10  1  0
 13 12  1  0
 14  2  1  0
 15 14  1  0
 16 15  2  0
 17  3  1  0
 17 15  1  0
 18 14  1  0
 19 18  1  0
 20 19  2  0
 21 20  1  0
 22 21  2  0
 23 22  1  0
 24 19  1  0
 24 23  2  0
 25 24  1  0
 26 25  2  0
 27 26  1  0
 27 18  2  0
M  END
$$$$

     RDKit          3D

 22 24  0  0  0  0  0  0  0  0999 V2000
  -14.3510   -3.0610  -20.8350 N   0  0  0  0  0  0  0  0  0  0  0  0
  -13.5830   -2.6270  -21.5620 C   0  0  0  0  0  0  0  0  0  0  0  0
  -12.6370   -2.0450  -22.4820 C   0  0  0  0  0  0  0  0  0  0  0  0
  -13.0810   -1.2060  -23.5010 C   0  0  0  0  0  0  0  0  0  0  0  0
  -12.1600   -0.5090  -24.2650 C   0  0  0  0  0  0  0  0  0  0  0  0
  -10.8020   -0.6580  -24.0250 C   0  0  0  0  0  0  0  0  0  0  0  0
  -11.2690   -2.2180  -22.2680 C   0  0  0  0  0  0  0  0  0  0  0  0
  -10.3430   -1.5150  -23.0300 C   0  0  0  0  0  0  0  0  0  0  0  0
   -8.8650   -1.6840  -22.7730 C   0  0  0  0  0  0  0  0  0  0  0  0
   -8.3600   -0.8690  -21.5990 C   0  0  0  0  0  0  0  0  0  0  0  0
   -8.9220    0.1590  -21.2280 O   0  0  0  0  0  0  0  0  0  0  0  0
   -7.2380   -1.3600  -21.0330 N   0  0  0  0  0  0  0  0  0  0  0  0
   -6.4790   -0.8060  -19.9870 C   0  0  0  0  0  0  0  0  0  0  0  0
   -5.3950    0.0650  -20.3180 C   0  0  0  0  0  0  0  0  0  0  0  0
   -5.0400    0.4140  -21.6460 C   0  0  0  0  0  0  0  0  0  0  0  0
   -3.9810    1.2420  -21.8960 C   0  0  0  0  0  0  0  0  0  0  0  0
   -3.2260    1.7630  -20.8510 C   0  0  0  0  0  0  0  0  0  0  0  0
   -3.5350    1.4610  -19.5530 C   0  0  0  0  0  0  0  0  0  0  0  0
   -4.6290    0.6100  -19.2510 C   0  0  0  0  0  0  0  0  0  0  0  0
   -5.0000    0.2620  -17.9330 C   0  0  0  0  0  0  0  0  0  0  0  0
   -6.0150   -0.5290  -17.6270 N   0  0  0  0  0  0  0  0  0  0  0  0
   -6.7230   -1.0460  -18.6340 C   0  0  0  0  0  0  0  0  0  0  0  0
  2  1  3  0
  3  2  1  0
  4  3  2  0
  5  4  1  0
  6  5  2  0
  7  3  1  0
  8  7  2  0
  8  6  1  0
  9  8  1  0
 10  9  1  0
 11 10  2  0
 12 10  1  0
 13 12  1  0
 14 13  1  0
 15 14  2  0
 16 15  1  0
 17 16  2  0
 18 17  1  0
 19 18  2  0
 19 14  1  0
 20 19  1  0
 21 20  2  0
 22 21  1  0
 22 13  2  0
M  END
$$$$

     RDKit          3D

 20 22  0  0  0  0  0  0  0  0999 V2000
   -8.3950   -0.3230  -21.0840 O   0  0  0  0  0  0  0  0  0  0  0  0
   -7.9380   -1.4630  -21.1120 C   0  0  0  0  0  0  0  0  0  0  0  0
   -8.5390   -2.5630  -21.9630 C   0  0  0  0  0  0  0  0  0  0  0  0
   -9.7990   -2.1460  -22.6810 C   0  0  0  0  0  0  0  0  0  0  0  0
   -9.7560   -1.3530  -23.8190 C   0  0  0  0  0  0  0  0  0  0  0  0
  -10.9250   -0.8970  -24.4100 C   0  0  0  0  0  0  0  0  0  0  0  0
  -12.1560   -1.2410  -23.8730 C   0  0  0  0  0  0  0  0  0  0  0  0
  -11.0340   -2.5210  -22.1710 C   0  0  0  0  0  0  0  0  0  0  0  0
  -12.1880   -2.0800  -22.7770 C   0  0  0  0  0  0  0  0  0  0  0  0
  -13.7130   -2.6990  -22.2120 Cl  0  0  0  0  0  0  0  0  0  0  0  0
   -6.8980   -1.8590  -20.3240 N   0  0  0  0  0  0  0  0  0  0  0  0
   -6.1470   -0.9660  -19.5950 C   0  0  0  0  0  0  0  0  0  0  0  0
   -5.1500   -0.2670  -20.2110 C   0  0  0  0  0  0  0  0  0  0  0  0
   -4.5530    0.4610  -19.1850 N   0  0  0  0  0  0  0  0  0  0  0  0
   -5.2360    0.1650  -18.0340 C   0  0  0  0  0  0  0  0  0  0  0  0
   -6.2180   -0.6950  -18.2340 N   0  0  0  0  0  0  0  0  0  0  0  0
   -4.6090   -0.1650  -21.5180 C   0  0  0  0  0  0  0  0  0  0  0  0
   -3.5120    0.6180  -21.7300 C   0  0  0  0  0  0  0  0  0  0  0  0
   -2.9220    1.3410  -20.6670 C   0  0  0  0  0  0  0  0  0  0  0  0
   -3.4360    1.2670  -19.4210 C   0  0  0  0  0  0  0  0  0  0  0  0
  2  1  2  0
  3  2  1  0
  4  3  1  0
  5  4  2  0
  6  5  1  0
  7  6  2  0
  8  4  1  0
  9  8  2  0
  9  7  1  0
 10  9  1  0
 11  2  1  0
 12 11  1  0
 13 12  2  0
 14 13  1  0
 15 14  1  0
 16 12  1  0
 16 15  2  0
 17 13  1  0
 18 17  2  0
 19 18  1  0
 20 19  2  0
 20 14  1  0
M  END
$$$$

     RDKit          3D

 21 24  0  0  0  0  0  0  0  0999 V2000
   -8.7570    0.1930  -21.5080 O   0  0  0  0  0  0  0  0  0  0  0  0
   -8.2630   -0.8830  -21.8360 C   0  0  0  0  0  0  0  0  0  0  0  0
   -8.5890   -1.5590  -23.1720 C   0  0  1  0  0  0  0  0  0  0  0  0
  -10.0990   -1.6570  -23.2700 C   0  0  0  0  0  0  0  0  0  0  0  0
  -10.8480   -2.3360  -22.3130 C   0  0  0  0  0  0  0  0  0  0  0  0
  -12.2310   -2.3050  -22.3430 C   0  0  0  0  0  0  0  0  0  0  0  0
  -12.8890   -1.5850  -23.3140 C   0  0  0  0  0  0  0  0  0  0  0  0
  -12.1710   -0.9210  -24.3000 C   0  0  0  0  0  0  0  0  0  0  0  0
  -10.7830   -0.9830  -24.2860 C   0  0  0  0  0  0  0  0  0  0  0  0
  -10.1470   -0.3920  -25.3520 O   0  0  0  0  0  0  0  0  0  0  0  0
   -8.7960   -0.8450  -25.5880 C   0  0  0  0  0  0  0  0  0  0  0  0
   -7.9430   -0.7670  -24.3420 C   0  0  0  0  0  0  0  0  0  0  0  0
   -7.3440   -1.5300  -21.0630 N   0  0  0  0  0  0  0  0  0  0  0  0
   -6.8840   -1.0810  -19.8360 C   0  0  0  0  0  0  0  0  0  0  0  0
   -5.6390   -0.5260  -19.6690 N   0  0  0  0  0  0  0  0  0  0  0  0
   -5.5950   -0.1580  -18.3570 C   0  0  0  0  0  0  0  0  0  0  0  0
   -6.7110   -0.4350  -17.7570 N   0  0  0  0  0  0  0  0  0  0  0  0
   -7.5430   -1.0350  -18.6930 N   0  0  0  0  0  0  0  0  0  0  0  0
   -4.6190   -0.2640  -20.6990 C   0  0  1  0  0  0  0  0  0  0  0  0
   -4.8340    0.8740  -21.6320 C   0  0  0  0  0  0  0  0  0  0  0  0
   -3.7980    0.9680  -20.5600 C   0  0  0  0  0  0  0  0  0  0  0  0
  2  1  2  0
  3  2  1  1
  4  3  1  0
  5  4  2  0
  6  5  1  0
  7  6  2  0
  8  7  1  0
  9  8  2  0
  9  4  1  0
 10  9  1  0
 11 10  1  0
 12 11  1  0
 12  3  1  0
 13  2  1  0
 14 13  1  0
 15 14  1  0
 16 15  1  0
 17 16  2  0
 18 17  1  0
 18 14  2  0
 19 15  1  1
 20 19  1  0
 21 20  1  0
 21 19  1  0
M  END
$$$$

     RDKit          3D

 29 32  0  0  0  0  0  0  0  0999 V2000
   -8.9770    0.2700  -21.3590 O   0  0  0  0  0  0  0  0  0  0  0  0
   -8.6670   -0.7930  -21.8850 C   0  0  0  0  0  0  0  0  0  0  0  0
   -7.6770   -1.7260  -21.2140 C   0  0  0  0  0  0  0  0  0  0  0  0
   -6.7820   -1.0200  -20.2230 C   0  0  0  0  0  0  0  0  0  0  0  0
   -7.0900   -1.0010  -18.8720 C   0  0  0  0  0  0  0  0  0  0  0  0
   -6.3040   -0.4590  -17.9330 N   0  0  0  0  0  0  0  0  0  0  0  0
   -5.1530    0.0940  -18.3400 C   0  0  0  0  0  0  0  0  0  0  0  0
   -4.7580    0.1380  -19.6620 C   0  0  0  0  0  0  0  0  0  0  0  0
   -5.5900   -0.4260  -20.6110 C   0  0  0  0  0  0  0  0  0  0  0  0
   -9.2160   -1.2000  -23.0660 N   0  0  0  0  0  0  0  0  0  0  0  0
  -10.4310   -0.5380  -23.5260 C   0  0  0  0  0  0  0  0  0  0  0  0
  -11.5530   -1.5060  -23.7530 C   0  0  0  0  0  0  0  0  0  0  0  0
  -12.4090   -2.1210  -22.7900 C   0  0  0  0  0  0  0  0  0  0  0  0
  -13.1750   -2.9980  -23.4980 C   0  0  0  0  0  0  0  0  0  0  0  0
  -11.7960   -1.9730  -24.9880 N   0  0  0  0  0  0  0  0  0  0  0  0
  -12.7860   -2.8900  -24.8140 N   0  0  0  0  0  0  0  0  0  0  0  0
  -13.2820   -3.6320  -25.9660 C   0  0  0  0  0  0  0  0  0  0  0  0
   -8.6740   -2.2540  -23.8670 C   0  0  0  0  0  0  0  0  0  0  0  0
   -9.0380   -3.5840  -23.6360 C   0  0  0  0  0  0  0  0  0  0  0  0
   -8.6280   -4.5770  -24.5070 C   0  0  0  0  0  0  0  0  0  0  0  0
   -7.8500   -4.2800  -25.6260 C   0  0  0  0  0  0  0  0  0  0  0  0
   -7.4620   -2.9540  -25.8250 C   0  0  0  0  0  0  0  0  0  0  0  0
   -7.8640   -1.9530  -24.9620 C   0  0  0  0  0  0  0  0  0  0  0  0
   -7.4980   -5.3310  -26.6120 C   0  0  0  0  0  0  0  0  0  0  0  0
   -8.4490   -6.2560  -26.8530 N   0  0  0  0  0  0  0  0  0  0  0  0
   -8.2030   -7.1630  -27.8160 C   0  0  0  0  0  0  0  0  0  0  0  0
   -7.0370   -7.1980  -28.5600 C   0  0  0  0  0  0  0  0  0  0  0  0
   -6.0680   -6.2560  -28.2910 C   0  0  0  0  0  0  0  0  0  0  0  0
   -6.2880   -5.3110  -27.3020 C   0  0  0  0  0  0  0  0  0  0  0  0
  2  1  2  0
  3  2  1  0
  4  3  1  0
  5  4  2  0
  6  5  1  0
  7  6  2  0
  8  7  1  0
  9  4  1  0
  9  8  2  0
 10  2  1  0
 11 10  1  0
 12 11  1  0
 13 12  1  0
 14 13  2  0
 15 12  2  0
 16 15  1  0
 16 14  1  0
 17 16  1  0
 18 10  1  0
 19 18  2  0
 20 19  1  0
 21 20  2  0
 22 21  1  0
 23 22  2  0
 23 18  1  0
 24 21  1  0
 25 24  2  0
 26 25  1  0
 27 26  2  0
 28 27  1  0
 29 28  2  0
 29 24  1  0
M  END
$$$$

     RDKit          3D

 20 21  0  0  0  0  0  0  0  0999 V2000
  -13.9210   -3.2050  -20.8200 N   0  0  0  0  0  0  0  0  0  0  0  0
  -13.2160   -2.7350  -21.5850 C   0  0  0  0  0  0  0  0  0  0  0  0
  -12.2880   -2.1490  -22.5220 C   0  0  0  0  0  0  0  0  0  0  0  0
  -12.7490   -1.3560  -23.5700 C   0  0  0  0  0  0  0  0  0  0  0  0
  -11.8420   -0.8020  -24.4570 C   0  0  0  0  0  0  0  0  0  0  0  0
  -10.4820   -1.0000  -24.2760 C   0  0  0  0  0  0  0  0  0  0  0  0
  -10.9200   -2.3630  -22.3550 C   0  0  0  0  0  0  0  0  0  0  0  0
  -10.0090   -1.7630  -23.2170 C   0  0  0  0  0  0  0  0  0  0  0  0
   -8.5280   -1.9140  -22.9670 C   0  0  0  0  0  0  0  0  0  0  0  0
   -8.1130   -1.1200  -21.7470 C   0  0  0  0  0  0  0  0  0  0  0  0
   -8.7610   -0.1550  -21.3550 O   0  0  0  0  0  0  0  0  0  0  0  0
   -6.9630   -1.5390  -21.1770 N   0  0  0  0  0  0  0  0  0  0  0  0
   -6.3130   -0.8910  -20.1000 C   0  0  0  0  0  0  0  0  0  0  0  0
   -5.1840   -0.0840  -20.3370 C   0  0  0  0  0  0  0  0  0  0  0  0
   -4.6690    0.1560  -21.7370 C   0  0  0  0  0  0  0  0  0  0  0  0
   -6.8090   -1.0530  -18.8130 C   0  0  0  0  0  0  0  0  0  0  0  0
   -6.2480   -0.4860  -17.7430 N   0  0  0  0  0  0  0  0  0  0  0  0
   -5.1640    0.2710  -17.9420 C   0  0  0  0  0  0  0  0  0  0  0  0
   -4.5870    0.5180  -19.2270 C   0  0  0  0  0  0  0  0  0  0  0  0
   -3.4840    1.3780  -19.3210 N   0  0  0  0  0  0  0  0  0  0  0  0
  2  1  3  0
  3  2  1  0
  4  3  2  0
  5  4  1  0
  6  5  2  0
  7  3  1  0
  8  7  2  0
  8  6  1  0
  9  8  1  0
 10  9  1  0
 11 10  2  0
 12 10  1  0
 13 12  1  0
 14 13  2  0
 15 14  1  0
 16 13  1  0
 17 16  2  0
 18 17  1  0
 19 18  2  0
 19 14  1  0
 20 19  1  0
M  END
$$$$

     RDKit          3D

 34 38  0  0  0  0  0  0  0  0999 V2000
  -13.8330    6.5100  -23.2000 O   0  0  0  0  0  0  0  0  0  0  0  0
  -13.0530    5.8900  -23.9190 C   0  0  0  0  0  0  0  0  0  0  0  0
  -12.1720    6.7130  -24.7900 C   0  0  0  0  0  0  0  0  0  0  0  0
  -10.8280    6.4530  -24.8080 O   0  0  0  0  0  0  0  0  0  0  0  0
  -10.2610    7.4180  -25.6080 C   0  0  0  0  0  0  0  0  0  0  0  0
  -11.1930    8.2450  -26.0750 C   0  0  0  0  0  0  0  0  0  0  0  0
  -12.4410    7.7980  -25.5540 C   0  0  0  0  0  0  0  0  0  0  0  0
  -12.9970    4.5450  -23.9270 N   0  0  0  0  0  0  0  0  0  0  0  0
  -13.6890    3.7860  -22.8730 C   0  0  0  0  0  0  0  0  0  0  0  0
  -12.8590    2.5980  -22.4320 C   0  0  0  0  0  0  0  0  0  0  0  0
  -12.4190    3.7560  -25.0290 C   0  0  0  0  0  0  0  0  0  0  0  0
  -11.6660    2.5440  -24.4960 C   0  0  0  0  0  0  0  0  0  0  0  0
  -12.5230    1.7730  -23.5930 N   0  0  0  0  0  0  0  0  0  0  0  0
  -12.1790    0.4480  -23.3210 C   0  0  0  0  0  0  0  0  0  0  0  0
  -13.1690   -0.4920  -23.0080 C   0  0  0  0  0  0  0  0  0  0  0  0
  -12.7930   -1.7560  -22.5960 C   0  0  0  0  0  0  0  0  0  0  0  0
  -14.0260   -2.8800  -22.1010 Cl  0  0  0  0  0  0  0  0  0  0  0  0
  -10.8340    0.0640  -23.2530 C   0  0  0  0  0  0  0  0  0  0  0  0
  -10.4780   -1.2150  -22.8260 C   0  0  0  0  0  0  0  0  0  0  0  0
  -11.4700   -2.1320  -22.5020 C   0  0  0  0  0  0  0  0  0  0  0  0
   -9.0200   -1.5920  -22.6820 C   0  0  0  0  0  0  0  0  0  0  0  0
   -8.3450   -0.8450  -21.5470 C   0  0  0  0  0  0  0  0  0  0  0  0
   -8.6430    0.3150  -21.2670 O   0  0  0  0  0  0  0  0  0  0  0  0
   -7.5110   -1.5770  -20.7980 N   0  0  0  0  0  0  0  0  0  0  0  0
   -6.4770   -1.1700  -19.9390 C   0  0  0  0  0  0  0  0  0  0  0  0
   -5.4980   -0.2070  -20.3450 C   0  0  0  0  0  0  0  0  0  0  0  0
   -5.0850   -0.0180  -21.6900 C   0  0  0  0  0  0  0  0  0  0  0  0
   -4.0520    0.8250  -22.0010 C   0  0  0  0  0  0  0  0  0  0  0  0
   -3.3830    1.5240  -21.0050 C   0  0  0  0  0  0  0  0  0  0  0  0
   -3.7450    1.3850  -19.6960 C   0  0  0  0  0  0  0  0  0  0  0  0
   -4.8040    0.5150  -19.3280 C   0  0  0  0  0  0  0  0  0  0  0  0
   -5.1510    0.2570  -17.9840 C   0  0  0  0  0  0  0  0  0  0  0  0
   -6.0520   -0.6350  -17.6090 N   0  0  0  0  0  0  0  0  0  0  0  0
   -6.6590   -1.3390  -18.5670 C   0  0  0  0  0  0  0  0  0  0  0  0
  2  1  2  0
  3  2  1  0
  4  3  1  0
  5  4  1  0
  6  5  2  0
  7  6  1  0
  7  3  2  0
  8  2  1  0
  9  8  1  0
 10  9  1  0
 11  8  1  0
 12 11  1  0
 13 12  1  0
 13 10  1  0
 14 13  1  0
 15 14  2  0
 16 15  1  0
 17 16  1  0
 18 14  1  0
 19 18  2  0
 20 16  2  0
 20 19  1  0
 21 19  1  0
 22 21  1  0
 23 22  2  0
 24 22  1  0
 25 24  1  0
 26 25  1  0
 27 26  2  0
 28 27  1  0
 29 28  2  0
 30 29  1  0
 31 26  1  0
 31 30  2  0
 32 31  1  0
 33 32  2  0
 34 33  1  0
 34 25  2  0
M  END
$$$$

     RDKit          3D

 26 28  0  0  0  0  0  0  0  0999 V2000
   -1.4140    2.2350  -21.5870 F   0  0  0  0  0  0  0  0  0  0  0  0
   -2.3860    1.3410  -21.2400 C   0  0  0  0  0  0  0  0  0  0  0  0
   -2.9390    1.4450  -19.9910 C   0  0  0  0  0  0  0  0  0  0  0  0
   -2.7810    0.4130  -22.1670 C   0  0  0  0  0  0  0  0  0  0  0  0
   -3.7830   -0.4750  -21.8180 C   0  0  0  0  0  0  0  0  0  0  0  0
   -4.3750   -0.4230  -20.5550 C   0  0  0  0  0  0  0  0  0  0  0  0
   -3.9610    0.5680  -19.6430 C   0  0  0  0  0  0  0  0  0  0  0  0
   -4.6190    0.6920  -18.4240 N   0  0  0  0  0  0  0  0  0  0  0  0
   -5.6810   -0.0810  -18.0340 C   0  0  0  0  0  0  0  0  0  0  0  0
   -6.3100    0.2010  -17.0090 O   0  0  0  0  0  0  0  0  0  0  0  0
   -6.0510   -1.1310  -18.9310 C   0  0  0  0  0  0  0  0  0  0  0  0
   -5.4370   -1.3280  -20.1290 C   0  0  0  0  0  0  0  0  0  0  0  0
   -5.7660   -2.5490  -20.9260 C   0  0  0  0  0  0  0  0  0  0  0  0
   -4.9780   -3.4930  -21.0030 O   0  0  0  0  0  0  0  0  0  0  0  0
   -6.9210   -2.5340  -21.5920 N   0  0  0  0  0  0  0  0  0  0  0  0
   -7.2280   -3.5180  -22.6220 C   0  0  0  0  0  0  0  0  0  0  0  0
   -8.6960   -3.5960  -22.9200 C   0  0  0  0  0  0  0  0  0  0  0  0
   -9.1560   -2.2610  -23.1900 O   0  0  0  0  0  0  0  0  0  0  0  0
  -10.5040   -1.9990  -23.1470 C   0  0  0  0  0  0  0  0  0  0  0  0
  -10.8670   -0.6910  -23.5190 C   0  0  0  0  0  0  0  0  0  0  0  0
   -9.8250    0.1180  -23.8860 O   0  0  0  0  0  0  0  0  0  0  0  0
  -10.1140    1.4770  -24.2090 C   0  0  0  0  0  0  0  0  0  0  0  0
  -11.4760   -2.8880  -22.7100 C   0  0  0  0  0  0  0  0  0  0  0  0
  -12.7950   -2.4700  -22.6200 C   0  0  0  0  0  0  0  0  0  0  0  0
  -13.1530   -1.1880  -22.9880 C   0  0  0  0  0  0  0  0  0  0  0  0
  -12.1970   -0.2930  -23.4440 C   0  0  0  0  0  0  0  0  0  0  0  0
  2  1  1  0
  3  2  2  0
  4  2  1  0
  5  4  2  0
  6  5  1  0
  7  6  2  0
  7  3  1  0
  8  7  1  0
  9  8  1  0
 10  9  2  0
 11  9  1  0
 12 11  2  0
 12  6  1  0
 13 12  1  0
 14 13  2  0
 15 13  1  0
 16 15  1  0
 17 16  1  0
 18 17  1  0
 19 18  1  0
 20 19  2  0
 21 20  1  0
 22 21  1  0
 23 19  1  0
 24 23  2  0
 25 24  1  0
 26 25  2  0
 26 20  1  0
M  END
$$$$

     RDKit          3D

 37 42  0  0  0  0  0  0  0  0999 V2000
   -9.1530    0.0480  -21.1670 O   0  0  0  0  0  0  0  0  0  0  0  0
   -8.6090   -0.9040  -21.7130 C   0  0  0  0  0  0  0  0  0  0  0  0
   -7.4260   -1.3990  -21.2840 N   0  0  0  0  0  0  0  0  0  0  0  0
   -6.7070   -0.9150  -20.1720 C   0  0  0  0  0  0  0  0  0  0  0  0
   -5.5620   -0.0880  -20.4000 C   0  0  0  0  0  0  0  0  0  0  0  0
   -5.0680    0.2380  -21.6890 C   0  0  0  0  0  0  0  0  0  0  0  0
   -3.9830    1.0560  -21.8380 C   0  0  0  0  0  0  0  0  0  0  0  0
   -3.3340    1.5830  -20.7290 C   0  0  0  0  0  0  0  0  0  0  0  0
   -3.7730    1.2980  -19.4690 C   0  0  0  0  0  0  0  0  0  0  0  0
   -4.8950    0.4560  -19.2680 C   0  0  0  0  0  0  0  0  0  0  0  0
   -5.4050    0.1390  -17.9840 C   0  0  0  0  0  0  0  0  0  0  0  0
   -6.4620   -0.6340  -17.7720 N   0  0  0  0  0  0  0  0  0  0  0  0
   -7.0880   -1.1330  -18.8470 C   0  0  0  0  0  0  0  0  0  0  0  0
   -9.2180   -1.5480  -22.9730 C   0  0  1  0  0  0  0  0  0  0  0  0
  -10.7260   -1.2650  -22.9600 C   0  0  0  0  0  0  0  0  0  0  0  0
  -11.5830   -2.0510  -22.1920 C   0  0  0  0  0  0  0  0  0  0  0  0
  -12.9320   -1.7590  -22.1610 C   0  0  0  0  0  0  0  0  0  0  0  0
  -13.9730   -2.7010  -21.1260 Cl  0  0  0  0  0  0  0  0  0  0  0  0
  -13.4690   -0.7170  -22.8870 C   0  0  0  0  0  0  0  0  0  0  0  0
  -12.6380    0.0570  -23.6770 C   0  0  0  0  0  0  0  0  0  0  0  0
  -11.2830   -0.2250  -23.7170 C   0  0  0  0  0  0  0  0  0  0  0  0
  -10.5530    0.5180  -24.6130 O   0  0  0  0  0  0  0  0  0  0  0  0
   -9.1310    0.5730  -24.3540 C   0  0  0  0  0  0  0  0  0  0  0  0
   -8.5360   -0.8020  -24.1420 C   0  0  0  0  0  0  0  0  0  0  0  0
   -8.9870   -3.0760  -23.0570 C   0  0  0  0  0  0  0  0  0  0  0  0
   -9.4880   -3.7150  -24.3370 C   0  0  0  0  0  0  0  0  0  0  0  0
  -10.2100   -3.1140  -25.1220 O   0  0  0  0  0  0  0  0  0  0  0  0
   -9.1340   -4.9870  -24.6170 N   0  0  0  0  0  0  0  0  0  0  0  0
   -9.9470   -5.8280  -25.5020 C   0  0  0  0  0  0  0  0  0  0  0  0
   -9.2920   -5.9230  -26.8630 C   0  0  0  0  0  0  0  0  0  0  0  0
   -7.8780   -6.2630  -26.6730 N   0  0  0  0  0  0  0  0  0  0  0  0
   -7.2040   -6.1380  -25.5080 C   0  0  0  0  0  0  0  0  0  0  0  0
   -7.8440   -5.5920  -24.2550 C   0  0  2  0  0  0  0  0  0  0  0  0
   -7.9910   -6.7000  -23.2210 C   0  0  0  0  0  0  0  0  0  0  0  0
   -5.9670   -6.5580  -25.6510 N   0  0  0  0  0  0  0  0  0  0  0  0
   -5.8280   -6.9750  -26.9760 N   0  0  0  0  0  0  0  0  0  0  0  0
   -6.9840   -6.7830  -27.5510 C   0  0  0  0  0  0  0  0  0  0  0  0
  2  1  2  0
  3  2  1  0
  4  3  1  0
  5  4  1  0
  6  5  2  0
  7  6  1  0
  8  7  2  0
  9  8  1  0
 10  5  1  0
 10  9  2  0
 11 10  1  0
 12 11  2  0
 13 12  1  0
 13  4  2  0
 14  2  1  0
 15 14  1  0
 16 15  2  0
 17 16  1  0
 18 17  1  0
 19 17  2  0
 20 19  1  0
 21 20  2  0
 21 15  1  0
 22 21  1  0
 23 22  1  0
 24 23  1  0
 24 14  1  0
 14 25  1  6
 26 25  1  0
 27 26  2  0
 28 26  1  0
 29 28  1  0
 30 29  1  0
 31 30  1  0
 32 31  1  0
 33 32  1  0
 33 28  1  0
 33 34  1  1
 35 32  2  0
 36 35  1  0
 37 36  2  0
 37 31  1  0
M  END
$$$$

     RDKit          3D

 33 37  0  0  0  0  0  0  0  0999 V2000
   -8.8720    5.7460  -22.5350 N   0  0  0  0  0  0  0  0  0  0  0  0
   -8.0570    4.9780  -22.7470 C   0  0  0  0  0  0  0  0  0  0  0  0
   -7.0350    3.9620  -23.0490 C   0  0  2  0  0  0  0  0  0  0  0  0
   -6.9360    3.6120  -24.5560 C   0  0  0  0  0  0  0  0  0  0  0  0
   -7.4250    2.4800  -22.8110 C   0  0  0  0  0  0  0  0  0  0  0  0
   -7.5500    2.2830  -24.2810 N   0  0  0  0  0  0  0  0  0  0  0  0
   -7.5050    0.9550  -25.1800 S   0  0  1  0  0  0  0  0  0  0  0  0
   -7.9020    1.3500  -26.4880 O   0  0  0  0  0  0  0  0  0  0  0  0
   -6.2590    0.3030  -24.9700 O   0  0  0  0  0  0  0  0  0  0  0  0
   -8.6560    0.0080  -24.6060 N   0  0  0  0  0  0  0  0  0  0  0  0
  -10.0520    0.1590  -25.0280 C   0  0  0  0  0  0  0  0  0  0  0  0
   -8.2780   -1.3870  -24.3040 C   0  0  0  0  0  0  0  0  0  0  0  0
   -9.0350   -1.8340  -23.0530 C   0  0  2  0  0  0  0  0  0  0  0  0
  -10.5240   -1.5680  -23.2000 C   0  0  0  0  0  0  0  0  0  0  0  0
  -10.9790   -0.5790  -24.0890 C   0  0  0  0  0  0  0  0  0  0  0  0
  -12.3380   -0.2700  -24.1240 C   0  0  0  0  0  0  0  0  0  0  0  0
  -13.2420   -0.9310  -23.3160 C   0  0  0  0  0  0  0  0  0  0  0  0
  -11.4480   -2.2550  -22.4090 C   0  0  0  0  0  0  0  0  0  0  0  0
  -12.7890   -1.9210  -22.4780 C   0  0  0  0  0  0  0  0  0  0  0  0
  -13.9270   -2.7560  -21.4590 Cl  0  0  0  0  0  0  0  0  0  0  0  0
   -8.5120   -1.0710  -21.8310 C   0  0  0  0  0  0  0  0  0  0  0  0
   -9.1300   -0.1320  -21.3390 O   0  0  0  0  0  0  0  0  0  0  0  0
   -7.3180   -1.5100  -21.3480 N   0  0  0  0  0  0  0  0  0  0  0  0
   -6.5860   -1.0090  -20.2410 C   0  0  0  0  0  0  0  0  0  0  0  0
   -5.4460   -0.1700  -20.4750 C   0  0  0  0  0  0  0  0  0  0  0  0
   -4.9060    0.0960  -21.7590 C   0  0  0  0  0  0  0  0  0  0  0  0
   -3.8160    0.9080  -21.9110 C   0  0  0  0  0  0  0  0  0  0  0  0
   -3.2130    1.4990  -20.8090 C   0  0  0  0  0  0  0  0  0  0  0  0
   -3.6940    1.2730  -19.5490 C   0  0  0  0  0  0  0  0  0  0  0  0
   -4.8130    0.4310  -19.3440 C   0  0  0  0  0  0  0  0  0  0  0  0
   -5.3370    0.1350  -18.0590 C   0  0  0  0  0  0  0  0  0  0  0  0
   -6.3790   -0.6580  -17.8430 N   0  0  0  0  0  0  0  0  0  0  0  0
   -6.9730   -1.2030  -18.9150 C   0  0  0  0  0  0  0  0  0  0  0  0
  2  1  3  0
  3  2  1  6
  4  3  1  0
  5  3  1  0
  6  5  1  0
  6  4  1  0
  7  6  1  1
  8  7  2  0
  9  7  2  0
 10  7  1  0
 11 10  1  0
 12 10  1  0
 13 12  1  0
 14 13  1  0
 15 14  2  0
 15 11  1  0
 16 15  1  0
 17 16  2  0
 18 14  1  0
 19 18  2  0
 19 17  1  0
 20 19  1  0
 13 21  1  1
 22 21  2  0
 23 21  1  0
 24 23  1  0
 25 24  1  0
 26 25  2  0
 27 26  1  0
 28 27  2  0
 29 28  1  0
 30 29  2  0
 30 25  1  0
 31 30  1  0
 32 31  2  0
 33 32  1  0
 33 24  2  0
M  END
$$$$

     RDKit          3D

 24 27  0  0  0  0  0  0  0  0999 V2000
   -8.9540   -0.2720  -21.3020 O   0  0  0  0  0  0  0  0  0  0  0  0
   -8.3700   -1.2980  -21.6480 C   0  0  0  0  0  0  0  0  0  0  0  0
   -8.8310   -2.1360  -22.8400 C   0  0  2  0  0  0  0  0  0  0  0  0
   -7.9960   -1.8520  -24.0980 C   0  0  0  0  0  0  0  0  0  0  0  0
   -8.2920   -0.4630  -24.6310 C   0  0  0  0  0  0  0  0  0  0  0  0
   -9.7250   -0.2750  -24.8200 N   0  0  0  0  0  0  0  0  0  0  0  0
  -10.2960   -1.8410  -23.0750 C   0  0  0  0  0  0  0  0  0  0  0  0
  -10.6750   -0.9060  -24.0510 C   0  0  0  0  0  0  0  0  0  0  0  0
  -12.0220   -0.5660  -24.1980 C   0  0  0  0  0  0  0  0  0  0  0  0
  -12.9810   -1.1500  -23.3870 C   0  0  0  0  0  0  0  0  0  0  0  0
  -11.2710   -2.4360  -22.2880 C   0  0  0  0  0  0  0  0  0  0  0  0
  -12.5900   -2.0840  -22.4500 C   0  0  0  0  0  0  0  0  0  0  0  0
  -13.7890   -2.8430  -21.4490 Cl  0  0  0  0  0  0  0  0  0  0  0  0
   -7.2770   -1.7760  -21.0220 N   0  0  0  0  0  0  0  0  0  0  0  0
   -6.5470   -1.1570  -19.9950 C   0  0  0  0  0  0  0  0  0  0  0  0
   -5.3990   -0.3910  -20.3600 C   0  0  0  0  0  0  0  0  0  0  0  0
   -4.8950   -0.3060  -21.6820 C   0  0  0  0  0  0  0  0  0  0  0  0
   -3.7810    0.4310  -21.9610 C   0  0  0  0  0  0  0  0  0  0  0  0
   -3.1200    1.1220  -20.9570 C   0  0  0  0  0  0  0  0  0  0  0  0
   -3.5740    1.0840  -19.6710 C   0  0  0  0  0  0  0  0  0  0  0  0
   -4.7210    0.3230  -19.3360 C   0  0  0  0  0  0  0  0  0  0  0  0
   -5.2260    0.2180  -18.0170 C   0  0  0  0  0  0  0  0  0  0  0  0
   -6.2900   -0.5030  -17.6800 N   0  0  0  0  0  0  0  0  0  0  0  0
   -6.9220   -1.1690  -18.6520 C   0  0  0  0  0  0  0  0  0  0  0  0
  2  1  2  0
  3  2  1  1
  4  3  1  0
  5  4  1  0
  6  5  1  0
  7  3  1  0
  8  7  2  0
  8  6  1  0
  9  8  1  0
 10  9  2  0
 11  7  1  0
 12 11  2  0
 12 10  1  0
 13 12  1  0
 14  2  1  0
 15 14  1  0
 16 15  1  0
 17 16  2  0
 18 17  1  0
 19 18  2  0
 20 19  1  0
 21 20  2  0
 21 16  1  0
 22 21  1  0
 23 22  2  0
 24 23  1  0
 24 15  2  0
M  END
$$$$

     RDKit          3D

 21 22  0  0  0  0  0  0  0  0999 V2000
   -7.7570   -1.0300  -25.4480 O   0  0  0  0  0  0  0  0  0  0  0  0
   -8.0260   -2.0590  -24.8310 C   0  0  0  0  0  0  0  0  0  0  0  0
   -7.1610   -3.2990  -24.9410 C   0  0  0  0  0  0  0  0  0  0  0  0
   -7.9380   -4.5500  -25.2830 C   0  0  0  0  0  0  0  0  0  0  0  0
   -8.8460   -5.1000  -24.3890 C   0  0  0  0  0  0  0  0  0  0  0  0
   -9.5620   -6.2050  -24.6310 N   0  0  0  0  0  0  0  0  0  0  0  0
   -9.3750   -6.8070  -25.8110 C   0  0  0  0  0  0  0  0  0  0  0  0
   -8.4920   -6.3460  -26.7670 C   0  0  0  0  0  0  0  0  0  0  0  0
   -7.7670   -5.2050  -26.4900 C   0  0  0  0  0  0  0  0  0  0  0  0
   -9.0550   -2.1440  -23.9910 N   0  0  0  0  0  0  0  0  0  0  0  0
   -9.6840   -0.9640  -23.4430 C   0  0  0  0  0  0  0  0  0  0  0  0
   -9.0970   -0.4680  -22.1330 C   0  0  0  0  0  0  0  0  0  0  0  0
   -9.5600    0.5230  -21.5870 O   0  0  0  0  0  0  0  0  0  0  0  0
   -8.0430   -1.1710  -21.6440 N   0  0  0  0  0  0  0  0  0  0  0  0
   -7.1650   -0.8110  -20.5870 C   0  0  0  0  0  0  0  0  0  0  0  0
   -5.9860   -0.1000  -20.8900 C   0  0  0  0  0  0  0  0  0  0  0  0
   -5.6670    0.3500  -22.2920 C   0  0  0  0  0  0  0  0  0  0  0  0
   -7.4040   -1.1510  -19.2510 C   0  0  0  0  0  0  0  0  0  0  0  0
   -6.5720   -0.8480  -18.2460 N   0  0  0  0  0  0  0  0  0  0  0  0
   -5.4540   -0.1860  -18.5520 C   0  0  0  0  0  0  0  0  0  0  0  0
   -5.1270    0.2040  -19.8340 C   0  0  0  0  0  0  0  0  0  0  0  0
  2  1  2  0
  3  2  1  0
  4  3  1  0
  5  4  2  0
  6  5  1  0
  7  6  2  0
  8  7  1  0
  9  8  2  0
  9  4  1  0
 10  2  1  0
 11 10  1  0
 12 11  1  0
 13 12  2  0
 14 12  1  0
 15 14  1  0
 16 15  2  0
 17 16  1  0
 18 15  1  0
 19 18  2  0
 20 19  1  0
 21 20  2  0
 21 16  1  0
M  END
$$$$

     RDKit          3D

 34 37  0  0  0  0  0  0  0  0999 V2000
  -10.5490    2.0030  -24.6140 O   0  0  0  0  0  0  0  0  0  0  0  0
  -10.1410    0.8760  -24.3920 C   0  0  0  0  0  0  0  0  0  0  0  0
   -8.8250    0.5330  -24.5620 N   0  0  0  0  0  0  0  0  0  0  0  0
   -7.9180    1.4540  -25.2200 C   0  0  0  0  0  0  0  0  0  0  0  0
   -7.3990    2.6450  -24.4310 C   0  0  0  0  0  0  0  0  0  0  0  0
   -6.8060    3.5570  -24.9980 O   0  0  0  0  0  0  0  0  0  0  0  0
   -7.5980    2.6390  -23.1170 N   0  0  0  0  0  0  0  0  0  0  0  0
   -6.9650    3.6020  -22.2350 C   0  0  0  0  0  0  0  0  0  0  0  0
  -11.0040   -0.1330  -23.7660 C   0  0  0  0  0  0  0  0  0  0  0  0
  -12.3710    0.1260  -23.6510 C   0  0  0  0  0  0  0  0  0  0  0  0
  -13.1930   -0.7490  -22.9690 C   0  0  0  0  0  0  0  0  0  0  0  0
  -12.6490   -1.8860  -22.4160 C   0  0  0  0  0  0  0  0  0  0  0  0
  -13.6910   -3.0010  -21.5840 Cl  0  0  0  0  0  0  0  0  0  0  0  0
  -11.2960   -2.1610  -22.4990 C   0  0  0  0  0  0  0  0  0  0  0  0
  -10.4490   -1.2660  -23.1570 C   0  0  0  0  0  0  0  0  0  0  0  0
   -8.9460   -1.4500  -23.1000 C   0  0  1  0  0  0  0  0  0  0  0  0
   -8.3070   -0.8190  -24.3360 C   0  0  0  0  0  0  0  0  0  0  0  0
   -8.4140   -0.7340  -21.8550 C   0  0  0  0  0  0  0  0  0  0  0  0
   -8.8540    0.3590  -21.4890 O   0  0  0  0  0  0  0  0  0  0  0  0
   -7.3910   -1.3650  -21.2240 N   0  0  0  0  0  0  0  0  0  0  0  0
   -6.6480   -0.9200  -20.1000 C   0  0  0  0  0  0  0  0  0  0  0  0
   -5.5300   -0.0600  -20.3280 C   0  0  0  0  0  0  0  0  0  0  0  0
   -4.8590    0.4880  -19.1950 C   0  0  0  0  0  0  0  0  0  0  0  0
   -5.3210    0.1080  -17.9100 C   0  0  0  0  0  0  0  0  0  0  0  0
   -6.3370   -0.7180  -17.6970 N   0  0  0  0  0  0  0  0  0  0  0  0
   -6.9740   -1.2050  -18.7740 C   0  0  0  0  0  0  0  0  0  0  0  0
   -5.0430    0.2670  -21.6180 C   0  0  0  0  0  0  0  0  0  0  0  0
   -3.9660    1.0880  -21.7840 C   0  0  0  0  0  0  0  0  0  0  0  0
   -3.3400    1.6390  -20.6750 C   0  0  0  0  0  0  0  0  0  0  0  0
   -3.7590    1.3560  -19.4000 C   0  0  0  0  0  0  0  0  0  0  0  0
   -2.0520    2.8270  -20.9100 S   0  0  1  0  0  0  0  0  0  0  0  0
   -2.6500    4.0500  -21.3660 O   0  0  0  0  0  0  0  0  0  0  0  0
   -1.2580    2.8730  -19.7140 O   0  0  0  0  0  0  0  0  0  0  0  0
   -1.0750    2.1720  -22.2060 C   0  0  0  0  0  0  0  0  0  0  0  0
  2  1  2  0
  3  2  1  0
  4  3  1  0
  5  4  1  0
  6  5  2  0
  7  5  1  0
  8  7  1  0
  9  2  1  0
 10  9  2  0
 11 10  1  0
 12 11  2  0
 13 12  1  0
 14 12  1  0
 15 14  2  0
 15  9  1  0
 16 15  1  0
 17 16  1  0
 17  3  1  0
 16 18  1  1
 19 18  2  0
 20 18  1  0
 21 20  1  0
 22 21  2  0
 23 22  1  0
 24 23  2  0
 25 24  1  0
 26 25  2  0
 26 21  1  0
 27 22  1  0
 28 27  2  0
 29 28  1  0
 30 29  2  0
 30 23  1  0
 31 29  1  0
 32 31  2  0
 33 31  2  0
 31 34  1  6
M  END
$$$$

     RDKit          3D

 25 28  0  0  0  0  0  0  0  0999 V2000
  -10.4630    0.0740  -24.9180 O   0  0  0  0  0  0  0  0  0  0  0  0
   -5.0860    0.1650  -21.6680 C   0  0  0  0  0  0  0  0  0  0  0  0
   -9.1460   -1.7380  -23.0010 C   0  0  1  0  0  0  0  0  0  0  0  0
   -4.0240    1.0120  -21.8180 C   0  0  0  0  0  0  0  0  0  0  0  0
   -3.4150    1.5810  -20.7110 C   0  0  0  0  0  0  0  0  0  0  0  0
   -3.8610    1.2990  -19.4520 C   0  0  0  0  0  0  0  0  0  0  0  0
  -13.9170   -2.8530  -21.2130 Cl  0  0  0  0  0  0  0  0  0  0  0  0
   -4.9510    0.4200  -19.2520 C   0  0  0  0  0  0  0  0  0  0  0  0
   -5.4710    0.1080  -17.9710 C   0  0  0  0  0  0  0  0  0  0  0  0
   -7.1250   -1.1940  -18.8390 C   0  0  0  0  0  0  0  0  0  0  0  0
   -9.2060   -0.0120  -21.3140 O   0  0  0  0  0  0  0  0  0  0  0  0
   -6.7300   -0.9810  -20.1580 C   0  0  0  0  0  0  0  0  0  0  0  0
   -8.6020   -0.9770  -21.7680 C   0  0  0  0  0  0  0  0  0  0  0  0
   -8.7750   -3.1610  -22.9230 N   0  0  0  0  0  0  0  0  0  0  0  0
   -7.4360   -1.4620  -21.2770 N   0  0  0  0  0  0  0  0  0  0  0  0
   -5.5890   -0.1530  -20.3820 C   0  0  0  0  0  0  0  0  0  0  0  0
  -10.6550   -1.5400  -23.1050 C   0  0  0  0  0  0  0  0  0  0  0  0
  -11.5130   -2.2610  -22.2790 C   0  0  0  0  0  0  0  0  0  0  0  0
  -12.8630   -1.9730  -22.2870 C   0  0  0  0  0  0  0  0  0  0  0  0
  -13.3960   -0.9980  -23.1060 C   0  0  0  0  0  0  0  0  0  0  0  0
  -12.5640   -0.3100  -23.9680 C   0  0  0  0  0  0  0  0  0  0  0  0
  -11.2070   -0.5900  -23.9710 C   0  0  0  0  0  0  0  0  0  0  0  0
   -9.0500    0.1950  -24.6250 C   0  0  0  0  0  0  0  0  0  0  0  0
   -6.5180   -0.6770  -17.7620 N   0  0  0  0  0  0  0  0  0  0  0  0
   -8.4310   -1.1300  -24.2280 C   0  0  0  0  0  0  0  0  0  0  0  0
  4  2  2  0
  5  4  1  0
  6  5  2  0
  8  6  1  0
  9  8  2  0
 12 10  1  0
 13  3  1  0
 13 11  2  0
  3 14  1  1
 15 13  1  0
 15 12  1  0
 16 12  2  0
 16  8  1  0
 16  2  1  0
 17  3  1  0
 18 17  2  0
 19 18  1  0
 19  7  1  0
 20 19  2  0
 21 20  1  0
 22 21  2  0
 22 17  1  0
 22  1  1  0
 23  1  1  0
 24 10  2  0
 24  9  1  0
 25 23  1  0
 25  3  1  0
M  CHG  1  14   1
M  END
$$$$

     RDKit          3D

 15 16  0  0  0  0  0  0  0  0999 V2000
   -9.6990    0.3070  -21.7060 N   0  0  0  0  0  0  0  0  0  0  0  0
   -9.5200   -0.6610  -22.3010 C   0  0  0  0  0  0  0  0  0  0  0  0
   -6.8180   -7.0010  -25.6380 O   0  0  0  0  0  0  0  0  0  0  0  0
   -9.3050   -1.8160  -23.0740 C   0  0  0  0  0  0  0  0  0  0  0  0
   -8.2520   -5.3340  -26.7450 C   0  0  0  0  0  0  0  0  0  0  0  0
   -8.5820   -1.7080  -24.2510 C   0  0  0  0  0  0  0  0  0  0  0  0
   -8.4630   -2.8240  -25.0730 C   0  0  0  0  0  0  0  0  0  0  0  0
   -9.0740   -4.0440  -24.7130 C   0  0  0  0  0  0  0  0  0  0  0  0
   -9.7690   -4.0380  -23.4580 C   0  0  0  0  0  0  0  0  0  0  0  0
   -9.4380   -6.5600  -24.9280 C   0  0  0  0  0  0  0  0  0  0  0  0
   -8.4550   -7.0260  -23.8480 C   0  0  0  0  0  0  0  0  0  0  0  0
   -6.9890   -6.7720  -24.2440 C   0  0  0  0  0  0  0  0  0  0  0  0
   -6.8230   -5.8820  -26.4920 C   0  0  0  0  0  0  0  0  0  0  0  0
   -9.8940   -2.9720  -22.6490 N   0  0  0  0  0  0  0  0  0  0  0  0
   -9.1040   -5.2380  -25.5280 N   0  0  0  0  0  0  0  0  0  0  0  0
  2  1  3  0
  4  2  1  0
  6  4  2  0
  7  6  1  0
  8  7  2  0
  9  8  1  0
 11 10  1  0
 12 11  1  0
 12  3  1  0
 13  3  1  0
 13  5  1  0
 14  9  2  0
 14  4  1  0
 15 10  1  0
 15  8  1  0
 15  5  1  0
M  END
$$$$

     RDKit          3D

 17 18  0  0  0  0  0  0  0  0999 V2000
   -6.5960   -1.0880  -17.9940 O   0  0  0  0  0  0  0  0  0  0  0  0
   -5.8730   -0.4890  -18.7690 C   0  0  0  0  0  0  0  0  0  0  0  0
   -4.9540    0.4620  -18.5330 N   0  0  0  0  0  0  0  0  0  0  0  0
   -4.3900    0.9570  -19.6890 N   0  0  0  0  0  0  0  0  0  0  0  0
   -4.9690    0.2930  -20.6360 C   0  0  0  0  0  0  0  0  0  0  0  0
   -5.8690   -0.5980  -20.1390 N   0  0  0  0  0  0  0  0  0  0  0  0
   -6.6290   -1.4970  -20.8660 N   0  0  0  0  0  0  0  0  0  0  0  0
   -7.7940   -1.1000  -21.4200 C   0  0  0  0  0  0  0  0  0  0  0  0
   -8.4080   -0.0960  -21.0670 O   0  0  0  0  0  0  0  0  0  0  0  0
   -8.2820   -1.9630  -22.5660 C   0  0  0  0  0  0  0  0  0  0  0  0
   -9.7140   -1.6510  -22.9450 C   0  0  0  0  0  0  0  0  0  0  0  0
  -10.7560   -2.4030  -22.4110 C   0  0  0  0  0  0  0  0  0  0  0  0
  -12.0630   -2.0250  -22.6500 C   0  0  0  0  0  0  0  0  0  0  0  0
  -13.3520   -2.9580  -21.9360 Cl  0  0  0  0  0  0  0  0  0  0  0  0
  -10.0190   -0.5630  -23.7570 C   0  0  0  0  0  0  0  0  0  0  0  0
  -11.3380   -0.2010  -23.9910 C   0  0  0  0  0  0  0  0  0  0  0  0
  -12.3740   -0.9270  -23.4230 C   0  0  0  0  0  0  0  0  0  0  0  0
  2  1  2  0
  3  2  1  0
  4  3  1  0
  5  4  2  0
  6  2  1  0
  6  5  1  0
  7  6  1  0
  8  7  1  0
  9  8  2  0
 10  8  1  0
 11 10  1  0
 12 11  2  0
 13 12  1  0
 14 13  1  0
 15 11  1  0
 16 15  2  0
 17 16  1  0
 17 13  2  0
M  END
$$$$

     RDKit          3D

 30 33  0  0  0  0  0  0  0  0999 V2000
  -10.4190    1.7790  -24.7650 O   0  0  0  0  0  0  0  0  0  0  0  0
  -10.0540    0.6640  -24.4450 C   0  0  0  0  0  0  0  0  0  0  0  0
   -8.7460    0.2670  -24.5700 N   0  0  0  0  0  0  0  0  0  0  0  0
   -7.8150    1.0850  -25.3220 C   0  0  0  0  0  0  0  0  0  0  0  0
   -7.2580    2.3140  -24.6200 C   0  0  0  0  0  0  0  0  0  0  0  0
   -6.5590    3.1130  -25.2380 O   0  0  0  0  0  0  0  0  0  0  0  0
   -7.5300    2.4620  -23.3270 N   0  0  0  0  0  0  0  0  0  0  0  0
   -6.8750    3.4630  -22.5060 C   0  0  0  0  0  0  0  0  0  0  0  0
  -10.9620   -0.2740  -23.7600 C   0  0  0  0  0  0  0  0  0  0  0  0
  -12.3240    0.0270  -23.6780 C   0  0  0  0  0  0  0  0  0  0  0  0
  -13.1840   -0.8020  -22.9840 C   0  0  0  0  0  0  0  0  0  0  0  0
  -12.6800   -1.9370  -22.3860 C   0  0  0  0  0  0  0  0  0  0  0  0
  -13.7670   -3.0070  -21.5460 Cl  0  0  0  0  0  0  0  0  0  0  0  0
  -11.3350   -2.2540  -22.4390 C   0  0  0  0  0  0  0  0  0  0  0  0
  -10.4550   -1.4050  -23.1080 C   0  0  0  0  0  0  0  0  0  0  0  0
   -8.9620   -1.6540  -23.0510 C   0  0  1  0  0  0  0  0  0  0  0  0
   -8.3000   -1.1060  -24.3150 C   0  0  0  0  0  0  0  0  0  0  0  0
   -8.4250   -0.8890  -21.8380 C   0  0  0  0  0  0  0  0  0  0  0  0
   -8.8830    0.1950  -21.4880 O   0  0  0  0  0  0  0  0  0  0  0  0
   -7.3730   -1.4740  -21.2220 N   0  0  0  0  0  0  0  0  0  0  0  0
   -6.6280   -0.9700  -20.1350 C   0  0  0  0  0  0  0  0  0  0  0  0
   -5.5210   -0.1050  -20.4060 C   0  0  0  0  0  0  0  0  0  0  0  0
   -5.0330    0.1720  -21.7130 C   0  0  0  0  0  0  0  0  0  0  0  0
   -3.9710    1.0140  -21.9030 C   0  0  0  0  0  0  0  0  0  0  0  0
   -3.3560    1.6320  -20.8210 C   0  0  0  0  0  0  0  0  0  0  0  0
   -3.7860    1.3950  -19.5460 C   0  0  0  0  0  0  0  0  0  0  0  0
   -4.8720    0.5170  -19.3020 C   0  0  0  0  0  0  0  0  0  0  0  0
   -5.3470    0.2130  -18.0010 C   0  0  0  0  0  0  0  0  0  0  0  0
   -6.3600   -0.6070  -17.7500 N   0  0  0  0  0  0  0  0  0  0  0  0
   -6.9720   -1.1750  -18.7990 C   0  0  0  0  0  0  0  0  0  0  0  0
  2  1  2  0
  3  2  1  0
  4  3  1  0
  5  4  1  0
  6  5  2  0
  7  5  1  0
  8  7  1  0
  9  2  1  0
 10  9  2  0
 11 10  1  0
 12 11  2  0
 13 12  1  0
 14 12  1  0
 15 14  2  0
 15  9  1  0
 16 15  1  0
 17 16  1  0
 17  3  1  0
 16 18  1  1
 19 18  2  0
 20 18  1  0
 21 20  1  0
 22 21  1  0
 23 22  2  0
 24 23  1  0
 25 24  2  0
 26 25  1  0
 27 22  1  0
 27 26  2  0
 28 27  1  0
 29 28  2  0
 30 29  1  0
 30 21  2  0
M  END
$$$$

     RDKit          3D

 16 17  0  0  0  0  0  0  0  0999 V2000
   -8.9750   -0.2220  -21.1470 O   0  0  0  0  0  0  0  0  0  0  0  0
   -8.2390   -1.0780  -21.6280 C   0  0  0  0  0  0  0  0  0  0  0  0
   -8.6630   -1.9380  -22.8000 C   0  0  0  0  0  0  0  0  0  0  0  0
  -10.1360   -1.7360  -23.0600 C   0  0  0  0  0  0  0  0  0  0  0  0
  -10.5790   -0.7840  -23.9690 C   0  0  0  0  0  0  0  0  0  0  0  0
  -11.9300   -0.4810  -24.0800 C   0  0  0  0  0  0  0  0  0  0  0  0
  -12.8570   -1.1420  -23.2910 C   0  0  0  0  0  0  0  0  0  0  0  0
  -11.0720   -2.4200  -22.2950 C   0  0  0  0  0  0  0  0  0  0  0  0
  -12.4120   -2.1190  -22.4230 C   0  0  0  0  0  0  0  0  0  0  0  0
  -13.5690   -3.0610  -21.5320 Cl  0  0  0  0  0  0  0  0  0  0  0  0
   -6.9370   -1.2160  -21.2450 N   0  0  0  0  0  0  0  0  0  0  0  0
   -6.4540   -0.8830  -19.9670 C   0  0  0  0  0  0  0  0  0  0  0  0
   -5.1640   -0.7910  -19.5400 C   0  0  0  0  0  0  0  0  0  0  0  0
   -5.1900   -0.5290  -18.2300 N   0  0  0  0  0  0  0  0  0  0  0  0
   -6.4520   -0.4860  -17.7560 N   0  0  0  0  0  0  0  0  0  0  0  0
   -7.2250   -0.7090  -18.8130 C   0  0  0  0  0  0  0  0  0  0  0  0
  2  1  2  0
  3  2  1  0
  4  3  1  0
  5  4  2  0
  6  5  1  0
  7  6  2  0
  8  4  1  0
  9  8  2  0
  9  7  1  0
 10  9  1  0
 11  2  1  0
 12 11  1  0
 13 12  1  0
 14 13  2  0
 15 14  1  0
 16 15  1  0
 16 12  2  0
M  END
$$$$

     RDKit          3D

 29 32  0  0  0  0  0  0  0  0999 V2000
   -8.5350   -0.1660  -21.4710 O   0  0  0  0  0  0  0  0  0  0  0  0
   -8.0240   -1.2760  -21.6000 C   0  0  0  0  0  0  0  0  0  0  0  0
   -8.5500   -2.2840  -22.6010 C   0  0  0  0  0  0  0  0  0  0  0  0
   -9.9600   -1.9380  -23.0170 C   0  0  0  0  0  0  0  0  0  0  0  0
  -10.2060   -0.9330  -23.9470 C   0  0  0  0  0  0  0  0  0  0  0  0
  -11.5020   -0.5470  -24.2520 C   0  0  0  0  0  0  0  0  0  0  0  0
  -12.5770   -1.1610  -23.6280 C   0  0  0  0  0  0  0  0  0  0  0  0
  -11.0420   -2.5670  -22.4100 C   0  0  0  0  0  0  0  0  0  0  0  0
  -12.3260   -2.1610  -22.7120 C   0  0  0  0  0  0  0  0  0  0  0  0
  -13.6590   -2.8910  -21.8650 Cl  0  0  0  0  0  0  0  0  0  0  0  0
   -6.9720   -1.6940  -20.8720 N   0  0  0  0  0  0  0  0  0  0  0  0
   -6.2930   -0.9870  -19.8660 C   0  0  0  0  0  0  0  0  0  0  0  0
   -5.3330   -0.0050  -20.2610 C   0  0  0  0  0  0  0  0  0  0  0  0
   -4.7560    0.8140  -19.2500 C   0  0  0  0  0  0  0  0  0  0  0  0
   -5.1620    0.5800  -17.9100 C   0  0  0  0  0  0  0  0  0  0  0  0
   -6.0400   -0.3480  -17.5450 N   0  0  0  0  0  0  0  0  0  0  0  0
   -6.5810   -1.1030  -18.5090 C   0  0  0  0  0  0  0  0  0  0  0  0
   -4.9000    0.1780  -21.5980 C   0  0  0  0  0  0  0  0  0  0  0  0
   -3.9510    1.1050  -21.9100 C   0  0  0  0  0  0  0  0  0  0  0  0
   -3.3850    1.8950  -20.9180 C   0  0  0  0  0  0  0  0  0  0  0  0
   -3.7830    1.7790  -19.6090 C   0  0  0  0  0  0  0  0  0  0  0  0
   -2.3630    2.6840  -21.3890 O   0  0  0  0  0  0  0  0  0  0  0  0
   -1.9030    3.7800  -20.5800 C   0  0  0  0  0  0  0  0  0  0  0  0
   -1.4970    4.9070  -21.5000 C   0  0  0  0  0  0  0  0  0  0  0  0
   -2.5320    5.2100  -22.4970 N   0  0  1  0  0  0  0  0  0  0  0  0
   -2.9370    6.6140  -22.6310 C   0  0  0  0  0  0  0  0  0  0  0  0
   -3.8620    6.6070  -23.8350 C   0  0  0  0  0  0  0  0  0  0  0  0
   -3.3870    5.4250  -24.6810 C   0  0  0  0  0  0  0  0  0  0  0  0
   -2.2640    4.7850  -23.8770 C   0  0  0  0  0  0  0  0  0  0  0  0
  2  1  2  0
  3  2  1  0
  4  3  1  0
  5  4  2  0
  6  5  1  0
  7  6  2  0
  8  4  1  0
  9  8  2  0
  9  7  1  0
 10  9  1  0
 11  2  1  0
 12 11  1  0
 13 12  2  0
 14 13  1  0
 15 14  2  0
 16 15  1  0
 17 16  2  0
 17 12  1  0
 18 13  1  0
 19 18  2  0
 20 19  1  0
 21 20  2  0
 21 14  1  0
 22 20  1  0
 23 22  1  0
 24 23  1  0
 25 24  1  1
 26 25  1  0
 27 26  1  0
 28 27  1  0
 29 28  1  0
 29 25  1  0
M  CHG  1  25   1
M  END
$$$$

     RDKit          3D

 35 38  0  0  0  0  0  0  0  0999 V2000
  -10.5240    1.9290  -24.4440 O   0  0  0  0  0  0  0  0  0  0  0  0
  -10.1560    0.7900  -24.2250 C   0  0  0  0  0  0  0  0  0  0  0  0
   -8.9040    0.3600  -24.5580 N   0  0  0  0  0  0  0  0  0  0  0  0
   -8.0170    1.2310  -25.3110 C   0  0  0  0  0  0  0  0  0  0  0  0
   -7.1860    2.2280  -24.5200 C   0  0  0  0  0  0  0  0  0  0  0  0
   -6.1900    2.7380  -25.0270 O   0  0  0  0  0  0  0  0  0  0  0  0
   -7.5860    2.5150  -23.2830 N   0  0  0  0  0  0  0  0  0  0  0  0
   -6.8760    3.4550  -22.4340 C   0  0  0  0  0  0  0  0  0  0  0  0
  -11.0390   -0.1980  -23.5840 C   0  0  0  0  0  0  0  0  0  0  0  0
  -12.4140    0.0360  -23.5590 C   0  0  0  0  0  0  0  0  0  0  0  0
  -13.2710   -0.8720  -22.9660 C   0  0  0  0  0  0  0  0  0  0  0  0
  -12.7490   -2.0180  -22.4050 C   0  0  0  0  0  0  0  0  0  0  0  0
  -13.8070   -3.0910  -21.5390 Cl  0  0  0  0  0  0  0  0  0  0  0  0
  -11.3930   -2.2910  -22.4360 C   0  0  0  0  0  0  0  0  0  0  0  0
  -10.5190   -1.3660  -23.0070 C   0  0  0  0  0  0  0  0  0  0  0  0
   -9.0150   -1.5480  -22.9420 C   0  0  1  0  0  0  0  0  0  0  0  0
   -8.4250   -1.0100  -24.2680 C   0  0  1  0  0  0  0  0  0  0  0  0
   -8.6820   -1.9550  -25.4310 C   0  0  0  0  0  0  0  0  0  0  0  0
   -8.4200   -0.7660  -21.7710 C   0  0  0  0  0  0  0  0  0  0  0  0
   -8.8300    0.3550  -21.4630 O   0  0  0  0  0  0  0  0  0  0  0  0
   -7.4130   -1.3880  -21.1220 N   0  0  0  0  0  0  0  0  0  0  0  0
   -6.6680   -0.8970  -20.0290 C   0  0  0  0  0  0  0  0  0  0  0  0
   -5.5350   -0.0620  -20.2900 C   0  0  0  0  0  0  0  0  0  0  0  0
   -4.8240    0.4720  -19.1750 C   0  0  0  0  0  0  0  0  0  0  0  0
   -5.2700    0.1140  -17.8760 C   0  0  0  0  0  0  0  0  0  0  0  0
   -6.3250   -0.6540  -17.6380 N   0  0  0  0  0  0  0  0  0  0  0  0
   -6.9950   -1.1360  -18.6950 C   0  0  0  0  0  0  0  0  0  0  0  0
   -5.0930    0.2830  -21.5940 C   0  0  0  0  0  0  0  0  0  0  0  0
   -4.0290    1.1160  -21.7840 C   0  0  0  0  0  0  0  0  0  0  0  0
   -3.3600    1.6420  -20.6870 C   0  0  0  0  0  0  0  0  0  0  0  0
   -3.7310    1.3370  -19.4080 C   0  0  0  0  0  0  0  0  0  0  0  0
   -1.9720    2.7100  -20.9410 S   0  0  2  0  0  0  0  0  0  0  0  0
   -1.1030    2.0900  -21.9010 O   0  0  0  0  0  0  0  0  0  0  0  0
   -1.4260    3.0550  -19.6570 O   0  0  0  0  0  0  0  0  0  0  0  0
   -2.6550    4.1580  -21.6550 C   0  0  0  0  0  0  0  0  0  0  0  0
  2  1  2  0
  3  2  1  0
  4  3  1  0
  5  4  1  0
  6  5  2  0
  7  5  1  0
  8  7  1  0
  9  2  1  0
 10  9  2  0
 11 10  1  0
 12 11  2  0
 13 12  1  0
 14 12  1  0
 15 14  2  0
 15  9  1  0
 16 15  1  0
 17 16  1  0
 17  3  1  0
 17 18  1  6
 16 19  1  1
 20 19  2  0
 21 19  1  0
 22 21  1  0
 23 22  2  0
 24 23  1  0
 25 24  2  0
 26 25  1  0
 27 26  2  0
 27 22  1  0
 28 23  1  0
 29 28  2  0
 30 29  1  0
 31 30  2  0
 31 24  1  0
 32 30  1  0
 33 32  2  0
 34 32  2  0
 32 35  1  6
M  END
$$$$

     RDKit          3D

 26 29  0  0  0  0  0  0  0  0999 V2000
   -6.4470   -0.0340  -17.2420 O   0  0  0  0  0  0  0  0  0  0  0  0
   -5.8470   -0.3060  -18.2820 C   0  0  0  0  0  0  0  0  0  0  0  0
   -6.1750   -1.4070  -19.1270 C   0  0  0  0  0  0  0  0  0  0  0  0
   -4.8250    0.4950  -18.7170 N   0  0  0  0  0  0  0  0  0  0  0  0
   -4.1500    0.3230  -19.9220 C   0  0  0  0  0  0  0  0  0  0  0  0
   -4.5130   -0.7380  -20.7730 C   0  0  0  0  0  0  0  0  0  0  0  0
   -3.8780   -0.8690  -22.0080 C   0  0  0  0  0  0  0  0  0  0  0  0
   -2.8680    0.0080  -22.3630 C   0  0  0  0  0  0  0  0  0  0  0  0
   -2.4860    1.0180  -21.5080 C   0  0  0  0  0  0  0  0  0  0  0  0
   -3.1260    1.1890  -20.2910 C   0  0  0  0  0  0  0  0  0  0  0  0
   -5.5490   -1.6500  -20.3050 C   0  0  0  0  0  0  0  0  0  0  0  0
   -5.8480   -2.9050  -21.0330 C   0  0  0  0  0  0  0  0  0  0  0  0
   -4.9710   -3.7480  -21.1730 O   0  0  0  0  0  0  0  0  0  0  0  0
   -7.0730   -3.0730  -21.5320 N   0  0  0  0  0  0  0  0  0  0  0  0
   -8.2710   -2.2430  -21.6990 C   0  0  0  0  0  0  0  0  0  0  0  0
   -7.5330   -4.1030  -22.4700 C   0  0  0  0  0  0  0  0  0  0  0  0
   -8.9130   -3.4270  -22.4400 C   0  0  2  0  0  0  0  0  0  0  0  0
   -9.2450   -3.1620  -23.8270 O   0  0  0  0  0  0  0  0  0  0  0  0
  -10.0620   -2.1050  -24.1290 C   0  0  0  0  0  0  0  0  0  0  0  0
   -9.7330   -1.4090  -25.3090 C   0  0  0  0  0  0  0  0  0  0  0  0
   -8.6790   -1.9260  -26.0160 O   0  0  0  0  0  0  0  0  0  0  0  0
   -8.3390   -1.3100  -27.2590 C   0  0  0  0  0  0  0  0  0  0  0  0
  -11.1450   -1.6980  -23.3620 C   0  0  0  0  0  0  0  0  0  0  0  0
  -11.8780   -0.5890  -23.7530 C   0  0  0  0  0  0  0  0  0  0  0  0
  -11.5390    0.1090  -24.8930 C   0  0  0  0  0  0  0  0  0  0  0  0
  -10.4780   -0.3000  -25.6840 C   0  0  0  0  0  0  0  0  0  0  0  0
  2  1  2  0
  3  2  1  0
  4  2  1  0
  5  4  1  0
  6  5  2  0
  7  6  1  0
  8  7  2  0
  9  8  1  0
 10  9  2  0
 10  5  1  0
 11  3  2  0
 11  6  1  0
 12 11  1  0
 13 12  2  0
 14 12  1  0
 15 14  1  0
 16 14  1  0
 17 16  1  0
 17 15  1  0
 17 18  1  6
 19 18  1  0
 20 19  2  0
 21 20  1  0
 22 21  1  0
 23 19  1  0
 24 23  2  0
 25 24  1  0
 26 25  2  0
 26 20  1  0
M  END
$$$$

     RDKit          3D

 14 13  0  0  0  0  0  0  0  0999 V2000
   -4.1360   -5.4470  -23.6390 O   0  0  0  0  0  0  0  0  0  0  0  0
   -4.0420   -6.5300  -23.0650 C   0  0  0  0  0  0  0  0  0  0  0  0
   -4.9780   -6.9740  -22.2030 N   0  0  0  0  0  0  0  0  0  0  0  0
   -6.1690   -6.1950  -21.8430 C   0  0  0  0  0  0  0  0  0  0  0  0
   -6.3480   -5.6800  -20.3290 C   0  0  0  0  0  0  0  0  0  0  0  0
   -5.3130   -5.8840  -19.6950 C   0  0  0  0  0  0  0  0  0  0  0  0
   -2.7870   -7.3920  -23.2670 C   0  0  1  0  0  0  0  0  0  0  0  0
   -2.7880   -8.0600  -24.6550 C   0  0  2  0  0  0  0  0  0  0  0  0
   -3.9580   -8.8610  -24.7950 O   0  0  0  0  0  0  0  0  0  0  0  0
   -1.5730   -8.9320  -24.8970 C   0  0  0  0  0  0  0  0  0  0  0  0
   -1.6130   -6.5310  -23.1800 N   0  0  0  0  0  0  0  0  0  0  0  0
   -0.4840   -6.8820  -22.5390 C   0  0  0  0  0  0  0  0  0  0  0  0
   -0.3940   -7.9260  -21.8930 O   0  0  0  0  0  0  0  0  0  0  0  0
    0.6610   -5.9170  -22.6520 C   0  0  0  0  0  0  0  0  0  0  0  0
  2  1  2  0
  3  2  1  0
  4  3  1  0
  5  4  1  0
  6  5  1  0
  7  2  1  0
  8  7  1  0
  9  8  1  0
  8 10  1  1
  7 11  1  6
 12 11  1  0
 13 12  2  0
 14 12  1  0
M  END
$$$$

     RDKit          3D

 26 29  0  0  0  0  0  0  0  0999 V2000
  -13.7300   -2.9710  -21.5440 Cl  0  0  0  0  0  0  0  0  0  0  0  0
  -12.5020   -2.2880  -22.5580 C   0  0  0  0  0  0  0  0  0  0  0  0
  -12.8450   -1.4090  -23.5630 C   0  0  0  0  0  0  0  0  0  0  0  0
  -14.1530   -1.2330  -23.8660 F   0  0  0  0  0  0  0  0  0  0  0  0
  -11.8940   -0.7680  -24.3160 C   0  0  0  0  0  0  0  0  0  0  0  0
  -11.1710   -2.5660  -22.3160 C   0  0  0  0  0  0  0  0  0  0  0  0
  -10.1710   -1.9470  -23.0630 C   0  0  0  0  0  0  0  0  0  0  0  0
  -10.5600   -1.0420  -24.0640 C   0  0  0  0  0  0  0  0  0  0  0  0
   -9.6680   -0.3910  -24.8860 O   0  0  0  0  0  0  0  0  0  0  0  0
   -8.2610   -0.5550  -24.5970 C   0  0  0  0  0  0  0  0  0  0  0  0
   -7.9220   -1.9400  -24.1050 C   0  0  0  0  0  0  0  0  0  0  0  0
   -8.7040   -2.2380  -22.8100 C   0  0  1  0  0  0  0  0  0  0  0  0
   -8.2710   -1.3480  -21.6440 C   0  0  0  0  0  0  0  0  0  0  0  0
   -9.0320   -0.5280  -21.1360 O   0  0  0  0  0  0  0  0  0  0  0  0
   -6.9640   -1.4370  -21.3100 N   0  0  0  0  0  0  0  0  0  0  0  0
   -6.3080   -1.0310  -20.1360 C   0  0  0  0  0  0  0  0  0  0  0  0
   -6.8380   -1.0770  -18.8450 C   0  0  0  0  0  0  0  0  0  0  0  0
   -6.3240   -0.4750  -17.7630 N   0  0  0  0  0  0  0  0  0  0  0  0
   -5.2410    0.2610  -17.9380 C   0  0  0  0  0  0  0  0  0  0  0  0
   -5.1380   -0.2300  -20.3200 C   0  0  0  0  0  0  0  0  0  0  0  0
   -4.5800    0.0360  -21.5990 C   0  0  0  0  0  0  0  0  0  0  0  0
   -3.5800    0.9480  -21.7030 C   0  0  0  0  0  0  0  0  0  0  0  0
   -3.0910    1.2300  -22.9380 F   0  0  0  0  0  0  0  0  0  0  0  0
   -4.6040    0.4510  -19.1890 C   0  0  0  0  0  0  0  0  0  0  0  0
   -3.5420    1.3670  -19.3800 C   0  0  0  0  0  0  0  0  0  0  0  0
   -3.0450    1.6130  -20.6270 C   0  0  0  0  0  0  0  0  0  0  0  0
  2  1  1  0
  3  2  2  0
  4  3  1  0
  5  3  1  0
  6  2  1  0
  7  6  2  0
  8  5  2  0
  8  7  1  0
  9  8  1  0
 10  9  1  0
 11 10  1  0
 12 11  1  0
 12  7  1  0
 12 13  1  1
 14 13  2  0
 15 13  1  0
 16 15  1  0
 17 16  2  0
 18 17  1  0
 19 18  2  0
 20 16  1  0
 21 20  2  0
 22 21  1  0
 23 22  1  0
 24 20  1  0
 24 19  1  0
 25 24  2  0
 26 25  1  0
 26 22  2  0
M  END
$$$$

     RDKit          3D

 22 23  0  0  0  0  0  0  0  0999 V2000
  -13.8000   -2.7120  -21.6700 Cl  0  0  0  0  0  0  0  0  0  0  0  0
  -12.4820   -2.0810  -22.6220 C   0  0  0  0  0  0  0  0  0  0  0  0
  -12.7500   -1.1880  -23.6370 C   0  0  0  0  0  0  0  0  0  0  0  0
  -11.6900   -0.6850  -24.3780 C   0  0  0  0  0  0  0  0  0  0  0  0
  -10.3900   -1.0610  -24.0760 C   0  0  0  0  0  0  0  0  0  0  0  0
  -11.1920   -2.4710  -22.3170 C   0  0  0  0  0  0  0  0  0  0  0  0
  -10.1250   -1.9360  -23.0340 C   0  0  0  0  0  0  0  0  0  0  0  0
   -8.7020   -2.2470  -22.6200 C   0  0  0  0  0  0  0  0  0  0  0  0
   -8.1820   -1.2940  -21.5650 C   0  0  0  0  0  0  0  0  0  0  0  0
   -8.8550   -0.3470  -21.1550 O   0  0  0  0  0  0  0  0  0  0  0  0
   -6.9400   -1.5740  -21.1140 N   0  0  0  0  0  0  0  0  0  0  0  0
   -6.3610   -0.9820  -19.9670 C   0  0  0  0  0  0  0  0  0  0  0  0
   -6.8350   -1.1300  -18.6650 C   0  0  0  0  0  0  0  0  0  0  0  0
   -6.3000   -0.5170  -17.6040 N   0  0  0  0  0  0  0  0  0  0  0  0
   -5.2400    0.2720  -17.8110 C   0  0  0  0  0  0  0  0  0  0  0  0
   -4.6770    0.5020  -19.0510 C   0  0  0  0  0  0  0  0  0  0  0  0
   -5.2500   -0.1320  -20.1420 C   0  0  0  0  0  0  0  0  0  0  0  0
   -4.6890   -0.1280  -21.4300 O   0  0  0  0  0  0  0  0  0  0  0  0
   -4.7170    1.0850  -22.2870 C   0  0  2  0  0  0  0  0  0  0  0  0
   -6.0600    1.7770  -22.1930 C   0  0  0  0  0  0  0  0  0  0  0  0
   -4.4800    0.5560  -23.6820 C   0  0  0  0  0  0  0  0  0  0  0  0
   -3.5950    2.0090  -21.8640 C   0  0  0  0  0  0  0  0  0  0  0  0
  2  1  1  0
  3  2  2  0
  4  3  1  0
  5  4  2  0
  6  2  1  0
  7  6  2  0
  7  5  1  0
  8  7  1  0
  9  8  1  0
 10  9  2  0
 11  9  1  0
 12 11  1  0
 13 12  2  0
 14 13  1  0
 15 14  2  0
 16 15  1  0
 17 12  1  0
 17 16  2  0
 18 17  1  0
 19 18  1  0
 19 20  1  6
 21 19  1  0
 22 19  1  0
M  END
$$$$

     RDKit          3D

 21 23  0  0  0  0  0  0  0  0999 V2000
   -8.6350   -0.2620  -21.3150 O   0  0  0  0  0  0  0  0  0  0  0  0
   -8.0440   -1.2980  -21.6160 C   0  0  0  0  0  0  0  0  0  0  0  0
   -8.5050   -2.1760  -22.7630 C   0  0  0  0  0  0  0  0  0  0  0  0
   -9.9620   -1.9280  -23.0760 C   0  0  0  0  0  0  0  0  0  0  0  0
  -10.3420   -0.9940  -24.0290 C   0  0  0  0  0  0  0  0  0  0  0  0
  -11.6810   -0.6900  -24.2310 C   0  0  0  0  0  0  0  0  0  0  0  0
  -12.6620   -1.3160  -23.4770 C   0  0  0  0  0  0  0  0  0  0  0  0
  -10.9510   -2.5850  -22.3490 C   0  0  0  0  0  0  0  0  0  0  0  0
  -12.2760   -2.2650  -22.5500 C   0  0  0  0  0  0  0  0  0  0  0  0
  -13.4910   -3.0710  -21.5870 Cl  0  0  0  0  0  0  0  0  0  0  0  0
   -6.9320   -1.7190  -20.9900 N   0  0  0  0  0  0  0  0  0  0  0  0
   -6.2620   -1.0720  -19.9310 C   0  0  0  0  0  0  0  0  0  0  0  0
   -5.1140   -0.2780  -20.2380 C   0  0  0  0  0  0  0  0  0  0  0  0
   -4.5720   -0.1380  -21.5350 C   0  0  0  0  0  0  0  0  0  0  0  0
   -3.4770    0.6510  -21.7290 C   0  0  0  0  0  0  0  0  0  0  0  0
   -2.9170    1.3040  -20.6350 C   0  0  0  0  0  0  0  0  0  0  0  0
   -3.3800    1.2230  -19.3960 N   0  0  0  0  0  0  0  0  0  0  0  0
   -4.4880    0.4330  -19.1870 C   0  0  0  0  0  0  0  0  0  0  0  0
   -5.0920    0.2860  -17.8960 C   0  0  0  0  0  0  0  0  0  0  0  0
   -6.1580   -0.4430  -17.6120 N   0  0  0  0  0  0  0  0  0  0  0  0
   -6.7250   -1.1100  -18.6210 C   0  0  0  0  0  0  0  0  0  0  0  0
  2  1  2  0
  3  2  1  0
  4  3  1  0
  5  4  2  0
  6  5  1  0
  7  6  2  0
  8  4  1  0
  9  8  2  0
  9  7  1  0
 10  9  1  0
 11  2  1  0
 12 11  1  0
 13 12  1  0
 14 13  2  0
 15 14  1  0
 16 15  2  0
 17 16  1  0
 18 17  2  0
 18 13  1  0
 19 18  1  0
 20 19  2  0
 21 20  1  0
 21 12  2  0
M  END
$$$$

     RDKit          3D

 28 31  0  0  0  0  0  0  0  0999 V2000
  -13.7110   -2.8850  -21.4320 Cl  0  0  0  0  0  0  0  0  0  0  0  0
  -12.6070   -2.0970  -22.5230 C   0  0  0  0  0  0  0  0  0  0  0  0
  -11.2560   -2.3740  -22.4250 C   0  0  0  0  0  0  0  0  0  0  0  0
  -13.0840   -1.1370  -23.3860 C   0  0  0  0  0  0  0  0  0  0  0  0
  -12.1890   -0.4240  -24.1590 C   0  0  0  0  0  0  0  0  0  0  0  0
  -10.8170   -0.6600  -24.0740 C   0  0  0  0  0  0  0  0  0  0  0  0
   -9.8920    0.1160  -24.9860 C   0  0  0  0  0  0  0  0  0  0  0  0
   -8.4780    0.0160  -24.5860 N   0  0  2  0  0  0  0  0  0  0  0  0
   -7.5800    0.5880  -25.5990 C   0  0  0  0  0  0  0  0  0  0  0  0
   -6.3120    1.1810  -25.0510 C   0  0  0  0  0  0  0  0  0  0  0  0
   -5.5560    1.6750  -26.1430 O   0  0  0  0  0  0  0  0  0  0  0  0
   -4.4250    2.4250  -25.7210 C   0  0  0  0  0  0  0  0  0  0  0  0
  -10.3440   -1.6370  -23.1850 C   0  0  0  0  0  0  0  0  0  0  0  0
   -8.8500   -1.8560  -23.0350 C   0  0  1  0  0  0  0  0  0  0  0  0
   -8.1170   -1.3730  -24.2860 C   0  0  0  0  0  0  0  0  0  0  0  0
   -8.3370   -1.0860  -21.8180 C   0  0  0  0  0  0  0  0  0  0  0  0
   -8.9020   -0.0700  -21.4010 O   0  0  0  0  0  0  0  0  0  0  0  0
   -7.1970   -1.5880  -21.2690 N   0  0  0  0  0  0  0  0  0  0  0  0
   -6.4580   -1.0710  -20.1760 C   0  0  0  0  0  0  0  0  0  0  0  0
   -5.3930   -0.1490  -20.4400 C   0  0  0  0  0  0  0  0  0  0  0  0
   -4.8500    0.0820  -21.7320 C   0  0  0  0  0  0  0  0  0  0  0  0
   -3.8250    0.9660  -21.9160 C   0  0  0  0  0  0  0  0  0  0  0  0
   -3.3060    1.6840  -20.8420 C   0  0  0  0  0  0  0  0  0  0  0  0
   -3.7910    1.4940  -19.5790 C   0  0  0  0  0  0  0  0  0  0  0  0
   -4.8290    0.5600  -19.3390 C   0  0  0  0  0  0  0  0  0  0  0  0
   -5.3190    0.2630  -18.0420 C   0  0  0  0  0  0  0  0  0  0  0  0
   -6.2670   -0.6260  -17.7920 N   0  0  0  0  0  0  0  0  0  0  0  0
   -6.8100   -1.2660  -18.8390 C   0  0  0  0  0  0  0  0  0  0  0  0
  2  1  1  0
  3  2  2  0
  4  2  1  0
  5  4  2  0
  6  5  1  0
  7  6  1  0
  8  7  1  0
  8  9  1  6
 10  9  1  0
 11 10  1  0
 12 11  1  0
 13  3  1  0
 13  6  2  0
 14 13  1  0
 15 14  1  0
 15  8  1  0
 14 16  1  1
 17 16  2  0
 18 16  1  0
 19 18  1  0
 20 19  1  0
 21 20  2  0
 22 21  1  0
 23 22  2  0
 24 23  1  0
 25 24  2  0
 25 20  1  0
 26 25  1  0
 27 26  2  0
 28 27  1  0
 28 19  2  0
M  CHG  1   8   1
M  END
$$$$

     RDKit          3D

 33 36  0  0  0  0  0  0  0  0999 V2000
  -10.3230    1.4890  -24.9270 O   0  0  0  0  0  0  0  0  0  0  0  0
  -10.0200    0.3820  -24.5250 C   0  0  0  0  0  0  0  0  0  0  0  0
   -8.7350   -0.1020  -24.6310 N   0  0  0  0  0  0  0  0  0  0  0  0
   -7.8170    0.5180  -25.5690 C   0  0  0  0  0  0  0  0  0  0  0  0
   -7.1130    1.7920  -25.1290 C   0  0  0  0  0  0  0  0  0  0  0  0
   -6.0700    2.1590  -25.6680 O   0  0  0  0  0  0  0  0  0  0  0  0
   -7.7010    2.4650  -24.1390 N   0  0  0  0  0  0  0  0  0  0  0  0
   -7.1710    2.4960  -22.7840 C   0  0  0  0  0  0  0  0  0  0  0  0
   -6.1880    3.6240  -22.5860 C   0  0  0  0  0  0  0  0  0  0  0  0
   -6.8520    4.9820  -22.6890 C   0  0  0  0  0  0  0  0  0  0  0  0
  -10.9870   -0.4560  -23.7970 C   0  0  0  0  0  0  0  0  0  0  0  0
  -12.3230   -0.0530  -23.7280 C   0  0  0  0  0  0  0  0  0  0  0  0
  -13.2360   -0.7810  -22.9930 C   0  0  0  0  0  0  0  0  0  0  0  0
  -12.8180   -1.9240  -22.3480 C   0  0  0  0  0  0  0  0  0  0  0  0
  -13.9640   -2.8270  -21.3980 Cl  0  0  0  0  0  0  0  0  0  0  0  0
  -11.5020   -2.3470  -22.3980 C   0  0  0  0  0  0  0  0  0  0  0  0
  -10.5590   -1.5850  -23.0890 C   0  0  0  0  0  0  0  0  0  0  0  0
   -9.0820   -1.8890  -22.9540 C   0  0  1  0  0  0  0  0  0  0  0  0
   -8.3600   -1.4620  -24.2320 C   0  0  0  0  0  0  0  0  0  0  0  0
   -8.5110   -1.0670  -21.7930 C   0  0  0  0  0  0  0  0  0  0  0  0
   -9.0380   -0.0230  -21.4100 O   0  0  0  0  0  0  0  0  0  0  0  0
   -7.3780   -1.5700  -21.2390 N   0  0  0  0  0  0  0  0  0  0  0  0
   -6.6360   -1.0390  -20.1600 C   0  0  0  0  0  0  0  0  0  0  0  0
   -5.4840   -0.2300  -20.4340 C   0  0  0  0  0  0  0  0  0  0  0  0
   -4.9340   -0.0580  -21.7300 C   0  0  0  0  0  0  0  0  0  0  0  0
   -3.8320    0.7180  -21.9290 C   0  0  0  0  0  0  0  0  0  0  0  0
   -3.2520    1.3510  -20.8520 C   0  0  0  0  0  0  0  0  0  0  0  0
   -2.1510    2.1220  -21.0780 F   0  0  0  0  0  0  0  0  0  0  0  0
   -3.7110    1.2380  -19.5790 C   0  0  0  0  0  0  0  0  0  0  0  0
   -4.8430    0.4200  -19.3390 C   0  0  0  0  0  0  0  0  0  0  0  0
   -5.3650    0.1930  -18.0420 C   0  0  0  0  0  0  0  0  0  0  0  0
   -6.4100   -0.5790  -17.7840 N   0  0  0  0  0  0  0  0  0  0  0  0
   -7.0150   -1.1730  -18.8240 C   0  0  0  0  0  0  0  0  0  0  0  0
  2  1  2  0
  3  2  1  0
  4  3  1  0
  5  4  1  0
  6  5  2  0
  7  5  1  0
  8  7  1  0
  9  8  1  0
 10  9  1  0
 11  2  1  0
 12 11  2  0
 13 12  1  0
 14 13  2  0
 15 14  1  0
 16 14  1  0
 17 16  2  0
 17 11  1  0
 18 17  1  0
 19 18  1  0
 19  3  1  0
 18 20  1  1
 21 20  2  0
 22 20  1  0
 23 22  1  0
 24 23  1  0
 25 24  2  0
 26 25  1  0
 27 26  2  0
 28 27  1  0
 29 27  1  0
 30 24  1  0
 30 29  2  0
 31 30  1  0
 32 31  2  0
 33 32  1  0
 33 23  2  0
M  END
$$$$

     RDKit          3D

 17 18  0  0  0  0  0  0  0  0999 V2000
  -24.0050  -16.3070  -25.2700 C   0  0  0  0  0  0  0  0  0  0  0  0
  -23.0970  -16.6310  -26.4610 C   0  0  0  0  0  0  0  0  0  0  0  0
  -22.5700  -18.9340  -25.5560 C   0  0  0  0  0  0  0  0  0  0  0  0
  -23.8070  -19.5530  -25.5610 C   0  0  0  0  0  0  0  0  0  0  0  0
  -24.0700  -20.5840  -24.6870 C   0  0  0  0  0  0  0  0  0  0  0  0
  -23.1070  -20.9920  -23.7790 C   0  0  0  0  0  0  0  0  0  0  0  0
  -23.3130  -22.1800  -21.5900 C   0  0  0  0  0  0  0  0  0  0  0  0
  -23.8630  -21.5950  -19.4500 C   0  0  0  0  0  0  0  0  0  0  0  0
  -23.0110  -22.5860  -18.9580 C   0  0  0  0  0  0  0  0  0  0  0  0
  -22.3280  -23.3810  -19.8780 C   0  0  0  0  0  0  0  0  0  0  0  0
  -21.8500  -20.3970  -23.7920 C   0  0  0  0  0  0  0  0  0  0  0  0
  -21.5780  -19.3560  -24.6780 C   0  0  0  0  0  0  0  0  0  0  0  0
  -22.3940  -17.8920  -26.5450 N   0  0  0  0  0  0  0  0  0  0  0  0
  -23.9990  -21.4160  -20.7520 N   0  0  0  0  0  0  0  0  0  0  0  0
  -22.5230  -23.1540  -21.1600 N   0  0  0  0  0  0  0  0  0  0  0  0
  -22.9290  -15.8360  -27.3210 O   0  0  0  0  0  0  0  0  0  0  0  0
  -23.4760  -22.0740  -22.9780 O   0  0  0  0  0  0  0  0  0  0  0  0
  2  1  1  0
  4  3  2  0
  5  4  1  0
  6  5  2  0
  9  8  2  0
 10  9  1  0
 11  6  1  0
 12 11  2  0
 12  3  1  0
 13  3  1  0
 13  2  1  0
 14  7  2  0
 14  8  1  0
 15 10  2  0
 15  7  1  0
 16  2  2  0
 17  7  1  0
 17  6  1  0
M  END
$$$$

     RDKit          3D

 29 32  0  0  0  0  0  0  0  0999 V2000
  -13.7930   -2.6670  -21.6370 Cl  0  0  0  0  0  0  0  0  0  0  0  0
  -12.5240   -1.9590  -22.6030 C   0  0  0  0  0  0  0  0  0  0  0  0
  -11.2170   -2.3600  -22.3990 C   0  0  0  0  0  0  0  0  0  0  0  0
  -12.8430   -0.9840  -23.5260 C   0  0  0  0  0  0  0  0  0  0  0  0
  -11.8320   -0.4150  -24.2790 C   0  0  0  0  0  0  0  0  0  0  0  0
  -10.5000   -0.7880  -24.0930 C   0  0  0  0  0  0  0  0  0  0  0  0
   -9.4210   -0.1530  -24.9460 C   0  0  0  0  0  0  0  0  0  0  0  0
   -8.0810   -0.3160  -24.3610 N   0  0  2  0  0  0  0  0  0  0  0  0
   -7.0190    0.2540  -25.1840 C   0  0  0  0  0  0  0  0  0  0  0  0
   -6.5860    1.6530  -24.7750 C   0  0  0  0  0  0  0  0  0  0  0  0
   -5.8280    2.2950  -25.4990 O   0  0  0  0  0  0  0  0  0  0  0  0
   -7.0370    2.1260  -23.6140 N   0  0  0  0  0  0  0  0  0  0  0  0
   -6.5260    3.3460  -23.0150 C   0  0  0  0  0  0  0  0  0  0  0  0
  -10.1880   -1.7540  -23.1190 C   0  0  0  0  0  0  0  0  0  0  0  0
   -8.7330   -2.0430  -22.7840 C   0  0  1  0  0  0  0  0  0  0  0  0
   -7.8460   -1.7120  -23.9830 C   0  0  0  0  0  0  0  0  0  0  0  0
   -8.2830   -1.1210  -21.6480 C   0  0  0  0  0  0  0  0  0  0  0  0
   -8.5450    0.0850  -21.6430 O   0  0  0  0  0  0  0  0  0  0  0  0
   -7.5100   -1.7180  -20.7110 N   0  0  0  0  0  0  0  0  0  0  0  0
   -6.5580   -1.1900  -19.8030 C   0  0  0  0  0  0  0  0  0  0  0  0
   -5.5950   -0.2020  -20.2080 C   0  0  0  0  0  0  0  0  0  0  0  0
   -5.1660   -0.0270  -21.5490 C   0  0  0  0  0  0  0  0  0  0  0  0
   -4.1180    0.7960  -21.8520 C   0  0  0  0  0  0  0  0  0  0  0  0
   -3.4590    1.5040  -20.8570 C   0  0  0  0  0  0  0  0  0  0  0  0
   -3.8410    1.3850  -19.5530 C   0  0  0  0  0  0  0  0  0  0  0  0
   -4.9040    0.5180  -19.1880 C   0  0  0  0  0  0  0  0  0  0  0  0
   -5.2130    0.2180  -17.8410 C   0  0  0  0  0  0  0  0  0  0  0  0
   -6.0820   -0.7040  -17.4670 N   0  0  0  0  0  0  0  0  0  0  0  0
   -6.7150   -1.3830  -18.4310 C   0  0  0  0  0  0  0  0  0  0  0  0
  2  1  1  0
  3  2  2  0
  4  2  1  0
  5  4  2  0
  6  5  1  0
  7  6  1  0
  8  7  1  0
  8  9  1  6
 10  9  1  0
 11 10  2  0
 12 10  1  0
 13 12  1  0
 14  3  1  0
 14  6  2  0
 15 14  1  0
 16 15  1  0
 16  8  1  0
 15 17  1  1
 18 17  2  0
 19 17  1  0
 20 19  1  0
 21 20  1  0
 22 21  2  0
 23 22  1  0
 24 23  2  0
 25 24  1  0
 26 21  1  0
 26 25  2  0
 27 26  1  0
 28 27  2  0
 29 28  1  0
 29 20  2  0
M  CHG  1   8   1
M  END
$$$$

     RDKit          3D

 18 19  0  0  0  0  0  0  0  0999 V2000
  -13.4070   -3.1050  -21.7810 Cl  0  0  0  0  0  0  0  0  0  0  0  0
  -12.2100   -2.2490  -22.7150 C   0  0  0  0  0  0  0  0  0  0  0  0
  -12.6190   -1.3850  -23.7130 C   0  0  0  0  0  0  0  0  0  0  0  0
  -11.6550   -0.8140  -24.5310 C   0  0  0  0  0  0  0  0  0  0  0  0
  -10.3100   -1.0540  -24.2960 C   0  0  0  0  0  0  0  0  0  0  0  0
  -10.8730   -2.5050  -22.4780 C   0  0  0  0  0  0  0  0  0  0  0  0
   -9.9040   -1.8750  -23.2520 C   0  0  0  0  0  0  0  0  0  0  0  0
   -8.4430   -2.0230  -22.9010 C   0  0  0  0  0  0  0  0  0  0  0  0
   -8.0370   -1.1600  -21.7220 C   0  0  0  0  0  0  0  0  0  0  0  0
   -8.6700   -0.1530  -21.3860 O   0  0  0  0  0  0  0  0  0  0  0  0
   -6.8970   -1.5530  -21.1250 N   0  0  0  0  0  0  0  0  0  0  0  0
   -6.2580   -0.9070  -20.0670 C   0  0  0  0  0  0  0  0  0  0  0  0
   -5.0640   -0.1780  -20.2910 C   0  0  0  0  0  0  0  0  0  0  0  0
   -4.4380   -0.0370  -21.6570 C   0  0  0  0  0  0  0  0  0  0  0  0
   -6.8660   -0.9100  -18.8800 N   0  0  0  0  0  0  0  0  0  0  0  0
   -6.3550   -0.2230  -17.8410 N   0  0  0  0  0  0  0  0  0  0  0  0
   -5.2300    0.4710  -17.9970 C   0  0  0  0  0  0  0  0  0  0  0  0
   -4.5550    0.5110  -19.2020 C   0  0  0  0  0  0  0  0  0  0  0  0
  2  1  1  0
  3  2  2  0
  4  3  1  0
  5  4  2  0
  6  2  1  0
  7  6  2  0
  7  5  1  0
  8  7  1  0
  9  8  1  0
 10  9  2  0
 11  9  1  0
 12 11  1  0
 13 12  2  0
 14 13  1  0
 15 12  1  0
 16 15  2  0
 17 16  1  0
 18 17  2  0
 18 13  1  0
M  END
$$$$

     RDKit          3D

 24 26  0  0  0  0  0  0  0  0999 V2000
   -7.5670   -3.3070  -24.6250 N   0  0  1  0  0  0  0  0  0  0  0  0
  -11.6520   -2.5590  -23.1160 C   0  0  0  0  0  0  0  0  0  0  0  0
   -4.5020   -1.2030  -25.7130 C   0  0  0  0  0  0  0  0  0  0  0  0
   -6.1100   -5.3850  -20.5550 C   0  0  0  0  0  0  0  0  0  0  0  0
   -5.2760   -6.0790  -20.0080 O   0  0  0  0  0  0  0  0  0  0  0  0
  -11.2430   -3.5610  -25.8370 C   0  0  0  0  0  0  0  0  0  0  0  0
   -5.3880   -1.9670  -24.7250 C   0  0  0  0  0  0  0  0  0  0  0  0
   -6.1270   -6.8560  -22.5220 C   0  0  0  0  0  0  0  0  0  0  0  0
   -8.7470   -3.8100  -25.4560 C   0  0  0  0  0  0  0  0  0  0  0  0
   -6.5170   -0.3740  -26.9230 C   0  0  0  0  0  0  0  0  0  0  0  0
   -7.4270   -1.1450  -25.9560 C   0  0  0  0  0  0  0  0  0  0  0  0
  -12.7590   -2.4310  -24.1610 C   0  0  0  0  0  0  0  0  0  0  0  0
   -6.8830   -4.3760  -23.8620 C   0  0  1  0  0  0  0  0  0  0  0  0
   -7.5040   -4.8060  -22.5410 C   0  0  0  0  0  0  0  0  0  0  0  0
  -12.6430   -3.5240  -25.2170 C   0  0  0  0  0  0  0  0  0  0  0  0
  -10.2650   -2.5820  -23.7660 C   0  0  0  0  0  0  0  0  0  0  0  0
   -6.6920   -4.1920  -19.8230 C   0  0  0  0  0  0  0  0  0  0  0  0
   -6.3910   -5.5810  -24.6700 C   0  0  0  0  0  0  0  0  0  0  0  0
   -5.2120    0.0200  -26.2570 C   0  0  2  0  0  0  0  0  0  0  0  0
   -6.5630   -5.6520  -21.7980 N   0  0  0  0  0  0  0  0  0  0  0  0
   -4.3690    0.7070  -27.1750 O   0  0  0  0  0  0  0  0  0  0  0  0
  -10.1360   -3.7080  -24.7910 C   0  0  1  0  0  0  0  0  0  0  0  0
   -6.7090   -2.3700  -25.3830 C   0  0  2  0  0  0  0  0  0  0  0  0
   -5.4670   -6.4700  -23.8370 C   0  0  0  0  0  0  0  0  0  0  0  0
  5  4  2  0
  7  3  1  0
  1  9  1  6
 11 10  1  0
 12  2  1  0
 13  1  1  0
 13 14  1  1
 15 12  1  0
 15  6  1  0
 16  2  1  0
 17  4  1  0
 18 13  1  0
 19 10  1  0
 19  3  1  0
 20  8  1  0
 20 14  1  0
 20  4  1  0
 19 21  1  6
 22  6  1  0
 22 16  1  0
 22  9  1  6
 23 11  1  1
 23  1  1  0
 23  7  1  0
 24 18  1  0
 24  8  1  0
M  CHG  1   1   1
M  END
$$$$

     RDKit          3D

 27 30  0  0  0  0  0  0  0  0999 V2000
  -13.8090   -2.9140  -21.4680 Cl  0  0  0  0  0  0  0  0  0  0  0  0
  -12.6360   -2.1180  -22.4820 C   0  0  0  0  0  0  0  0  0  0  0  0
  -13.0520   -1.0950  -23.3190 C   0  0  0  0  0  0  0  0  0  0  0  0
  -12.1160   -0.4020  -24.0680 C   0  0  0  0  0  0  0  0  0  0  0  0
  -10.7830   -0.7590  -23.9560 C   0  0  0  0  0  0  0  0  0  0  0  0
   -9.7200   -0.2390  -24.6580 O   0  0  0  0  0  0  0  0  0  0  0  0
   -8.5000   -0.9380  -24.2910 C   0  0  0  0  0  0  0  0  0  0  0  0
  -11.3000   -2.4680  -22.3660 C   0  0  0  0  0  0  0  0  0  0  0  0
  -10.3580   -1.7490  -23.0950 C   0  0  0  0  0  0  0  0  0  0  0  0
   -8.8470   -1.7260  -23.0290 C   0  0  2  0  0  0  0  0  0  0  0  0
   -8.1890   -1.1490  -21.7770 C   0  0  0  0  0  0  0  0  0  0  0  0
   -8.5960   -0.1260  -21.2470 O   0  0  0  0  0  0  0  0  0  0  0  0
   -7.1160   -1.8670  -21.1890 N   0  0  0  0  0  0  0  0  0  0  0  0
   -6.6030   -3.0870  -21.6970 C   0  0  0  0  0  0  0  0  0  0  0  0
   -6.9970   -3.5530  -22.7700 O   0  0  0  0  0  0  0  0  0  0  0  0
   -5.5670   -3.8030  -20.8940 C   0  0  0  0  0  0  0  0  0  0  0  0
   -6.2100   -5.0010  -20.1490 C   0  0  0  0  0  0  0  0  0  0  0  0
   -6.4530   -1.2380  -20.0580 C   0  0  0  0  0  0  0  0  0  0  0  0
   -6.9230   -1.3860  -18.7540 C   0  0  0  0  0  0  0  0  0  0  0  0
   -6.4380   -0.7250  -17.6930 N   0  0  0  0  0  0  0  0  0  0  0  0
   -5.4500    0.1320  -17.9050 C   0  0  0  0  0  0  0  0  0  0  0  0
   -4.8850    0.4070  -19.1760 C   0  0  0  0  0  0  0  0  0  0  0  0
   -5.4050   -0.2980  -20.2980 C   0  0  0  0  0  0  0  0  0  0  0  0
   -3.8560    1.3620  -19.3780 C   0  0  0  0  0  0  0  0  0  0  0  0
   -3.3680    1.6080  -20.6310 C   0  0  0  0  0  0  0  0  0  0  0  0
   -3.8720    0.9260  -21.7300 C   0  0  0  0  0  0  0  0  0  0  0  0
   -4.8660   -0.0010  -21.5810 C   0  0  0  0  0  0  0  0  0  0  0  0
  2  1  1  0
  3  2  2  0
  4  3  1  0
  5  4  2  0
  6  5  1  0
  7  6  1  0
  8  2  1  0
  9  8  2  0
  9  5  1  0
 10  9  1  0
 10  7  1  0
 10 11  1  1
 12 11  2  0
 13 11  1  0
 14 13  1  0
 15 14  2  0
 16 14  1  0
 17 16  1  0
 18 13  1  0
 19 18  2  0
 20 19  1  0
 21 20  2  0
 22 21  1  0
 23 18  1  0
 23 22  2  0
 24 22  1  0
 25 24  2  0
 26 25  1  0
 27 26  2  0
 27 23  1  0
M  END
$$$$

     RDKit          3D

 21 24  0  0  0  0  0  0  0  0999 V2000
   -6.2850   -2.7920  -21.7400 C   0  0  0  0  0  0  0  0  0  0  0  0
   -7.1280   -3.0460  -22.7660 N   0  0  0  0  0  0  0  0  0  0  0  0
   -5.2650   -3.3710  -21.4300 O   0  0  0  0  0  0  0  0  0  0  0  0
   -8.3290   -2.2370  -22.6870 C   0  0  1  0  0  0  0  0  0  0  0  0
   -6.7840   -1.6350  -21.0890 N   0  0  0  0  0  0  0  0  0  0  0  0
   -8.6780   -0.2820  -21.2950 O   0  0  0  0  0  0  0  0  0  0  0  0
   -8.9080   -1.5800  -23.9630 C   0  0  0  0  0  0  0  0  0  0  0  0
   -6.0230   -0.4010  -17.7140 N   0  0  0  0  0  0  0  0  0  0  0  0
  -10.1890   -2.4280  -23.8040 C   0  0  2  0  0  0  0  0  0  0  0  0
  -11.5560   -1.7420  -23.9230 C   0  0  1  0  0  0  0  0  0  0  0  0
  -12.0880   -1.6710  -25.3560 C   0  0  0  0  0  0  0  0  0  0  0  0
  -12.9410   -2.9170  -25.0490 C   0  0  0  0  0  0  0  0  0  0  0  0
  -12.8300   -2.5350  -23.5640 C   0  0  0  0  0  0  0  0  0  0  0  0
   -9.6880   -2.9410  -22.4360 C   0  0  0  0  0  0  0  0  0  0  0  0
   -8.0070   -1.2430  -21.6200 C   0  0  0  0  0  0  0  0  0  0  0  0
   -6.1090   -0.9360  -20.0320 C   0  0  0  0  0  0  0  0  0  0  0  0
   -6.5990   -1.0180  -18.7400 C   0  0  0  0  0  0  0  0  0  0  0  0
   -4.9450    0.3590  -17.9430 C   0  0  0  0  0  0  0  0  0  0  0  0
   -4.4120    0.4710  -19.2090 C   0  0  0  0  0  0  0  0  0  0  0  0
   -4.9950   -0.1580  -20.2770 C   0  0  0  0  0  0  0  0  0  0  0  0
   -3.2920    1.2280  -19.3840 F   0  0  0  0  0  0  0  0  0  0  0  0
  2  1  1  0
  3  1  2  0
  4  2  1  0
  5  1  1  0
  4  7  1  6
  9  7  1  1
 10  9  1  0
 10 11  1  6
 12 11  1  0
 13 12  1  0
 13 10  1  0
 14  9  1  0
 14  4  1  0
 15  4  1  0
 15  6  2  0
 15  5  1  0
 16  5  1  0
 17 16  1  0
 17  8  2  0
 18  8  1  0
 19 18  2  0
 20 16  2  0
 20 19  1  0
 21 19  1  0
M  END
$$$$

     RDKit          3D

 34 38  0  0  0  0  0  0  0  0999 V2000
   -9.0950    4.9070  -23.4110 N   0  0  0  0  0  0  0  0  0  0  0  0
   -8.1740    4.2390  -23.3510 C   0  0  0  0  0  0  0  0  0  0  0  0
   -6.9740    3.4050  -23.2130 C   0  0  2  0  0  0  0  0  0  0  0  0
   -6.1900    3.9060  -21.9690 C   0  0  0  0  0  0  0  0  0  0  0  0
   -5.3140    4.7560  -22.8840 C   0  0  0  0  0  0  0  0  0  0  0  0
   -5.7800    3.9080  -24.0690 C   0  0  0  0  0  0  0  0  0  0  0  0
   -7.3590    1.9290  -23.2870 C   0  0  0  0  0  0  0  0  0  0  0  0
   -7.4070    1.0680  -24.8500 S   0  0  2  0  0  0  0  0  0  0  0  0
   -6.1380    0.4530  -25.0760 O   0  0  0  0  0  0  0  0  0  0  0  0
   -7.9280    1.9640  -25.8360 O   0  0  0  0  0  0  0  0  0  0  0  0
   -8.4920   -0.1270  -24.6640 N   0  0  0  0  0  0  0  0  0  0  0  0
   -9.8870    0.0930  -25.0640 C   0  0  0  0  0  0  0  0  0  0  0  0
   -8.1450   -1.5120  -24.3040 C   0  0  0  0  0  0  0  0  0  0  0  0
   -8.9240   -1.8910  -23.0430 C   0  0  2  0  0  0  0  0  0  0  0  0
  -10.4040   -1.5990  -23.2200 C   0  0  0  0  0  0  0  0  0  0  0  0
  -10.8300   -0.5900  -24.1020 C   0  0  0  0  0  0  0  0  0  0  0  0
  -12.1770   -0.2370  -24.1240 C   0  0  0  0  0  0  0  0  0  0  0  0
  -13.0990   -0.8750  -23.3160 C   0  0  0  0  0  0  0  0  0  0  0  0
  -11.3450   -2.2700  -22.4380 C   0  0  0  0  0  0  0  0  0  0  0  0
  -12.6740   -1.8960  -22.4990 C   0  0  0  0  0  0  0  0  0  0  0  0
  -13.8410   -2.7520  -21.5310 Cl  0  0  0  0  0  0  0  0  0  0  0  0
   -8.4080   -1.1150  -21.8280 C   0  0  0  0  0  0  0  0  0  0  0  0
   -9.0040   -0.1350  -21.3780 O   0  0  0  0  0  0  0  0  0  0  0  0
   -7.2490   -1.5830  -21.3020 N   0  0  0  0  0  0  0  0  0  0  0  0
   -6.5450   -1.0710  -20.1890 C   0  0  0  0  0  0  0  0  0  0  0  0
   -5.4020   -0.2350  -20.4150 C   0  0  0  0  0  0  0  0  0  0  0  0
   -4.8190   -0.0220  -21.6910 C   0  0  0  0  0  0  0  0  0  0  0  0
   -3.7450    0.8080  -21.8450 C   0  0  0  0  0  0  0  0  0  0  0  0
   -3.2030    1.4740  -20.7520 C   0  0  0  0  0  0  0  0  0  0  0  0
   -3.7170    1.2900  -19.5010 C   0  0  0  0  0  0  0  0  0  0  0  0
   -4.8180    0.4220  -19.2950 C   0  0  0  0  0  0  0  0  0  0  0  0
   -5.3740    0.1640  -18.0150 C   0  0  0  0  0  0  0  0  0  0  0  0
   -6.4080   -0.6400  -17.8000 N   0  0  0  0  0  0  0  0  0  0  0  0
   -6.9740   -1.2250  -18.8680 C   0  0  0  0  0  0  0  0  0  0  0  0
  2  1  3  0
  3  2  1  6
  4  3  1  0
  5  4  1  0
  6  3  1  0
  6  5  1  0
  7  3  1  0
  8  7  1  1
  9  8  2  0
 10  8  2  0
 11  8  1  0
 12 11  1  0
 13 11  1  0
 14 13  1  0
 15 14  1  0
 16 15  2  0
 16 12  1  0
 17 16  1  0
 18 17  2  0
 19 15  1  0
 20 19  2  0
 20 18  1  0
 21 20  1  0
 14 22  1  1
 23 22  2  0
 24 22  1  0
 25 24  1  0
 26 25  1  0
 27 26  2  0
 28 27  1  0
 29 28  2  0
 30 29  1  0
 31 30  2  0
 31 26  1  0
 32 31  1  0
 33 32  2  0
 34 33  1  0
 34 25  2  0
M  END
$$$$

     RDKit          3D

 33 37  0  0  0  0  0  0  0  0999 V2000
  -13.8020   -2.7360  -21.4410 Cl  0  0  0  0  0  0  0  0  0  0  0  0
  -12.6680   -2.0010  -22.5370 C   0  0  0  0  0  0  0  0  0  0  0  0
  -11.3270   -2.3120  -22.4240 C   0  0  0  0  0  0  0  0  0  0  0  0
  -13.1180   -1.0870  -23.4580 C   0  0  0  0  0  0  0  0  0  0  0  0
  -12.2050   -0.4730  -24.2940 C   0  0  0  0  0  0  0  0  0  0  0  0
  -10.8400   -0.7360  -24.1920 C   0  0  0  0  0  0  0  0  0  0  0  0
   -9.8990    0.0380  -25.0970 C   0  0  0  0  0  0  0  0  0  0  0  0
   -8.4800   -0.2510  -24.8520 N   0  0  0  0  0  0  0  0  0  0  0  0
   -7.2350    0.6790  -25.2320 S   0  0  2  0  0  0  0  0  0  0  0  0
   -7.3990    1.0910  -26.5820 O   0  0  0  0  0  0  0  0  0  0  0  0
   -6.0560    0.0010  -24.8170 O   0  0  0  0  0  0  0  0  0  0  0  0
   -7.4340    1.9760  -24.3220 N   0  0  0  0  0  0  0  0  0  0  0  0
   -7.6980    3.4050  -24.6360 C   0  0  0  0  0  0  0  0  0  0  0  0
   -7.3810    2.2640  -22.8620 C   0  0  0  0  0  0  0  0  0  0  0  0
   -7.1530    3.7350  -23.2380 C   0  0  1  0  0  0  0  0  0  0  0  0
   -5.7400    3.9320  -23.2090 O   0  0  0  0  0  0  0  0  0  0  0  0
   -5.2560    4.3770  -21.9540 C   0  0  0  0  0  0  0  0  0  0  0  0
  -10.3970   -1.6580  -23.2310 C   0  0  0  0  0  0  0  0  0  0  0  0
   -8.9130   -1.8930  -23.0400 C   0  0  1  0  0  0  0  0  0  0  0  0
   -8.1650   -1.5960  -24.3360 C   0  0  0  0  0  0  0  0  0  0  0  0
   -8.4150   -1.0710  -21.8470 C   0  0  0  0  0  0  0  0  0  0  0  0
   -9.0700   -0.1410  -21.3760 O   0  0  0  0  0  0  0  0  0  0  0  0
   -7.2280   -1.4790  -21.3340 N   0  0  0  0  0  0  0  0  0  0  0  0
   -6.5380   -0.9770  -20.2090 C   0  0  0  0  0  0  0  0  0  0  0  0
   -5.3760   -0.1690  -20.4140 C   0  0  0  0  0  0  0  0  0  0  0  0
   -4.8120    0.0940  -21.6880 C   0  0  0  0  0  0  0  0  0  0  0  0
   -3.7230    0.9060  -21.8210 C   0  0  0  0  0  0  0  0  0  0  0  0
   -3.1370    1.4940  -20.7080 C   0  0  0  0  0  0  0  0  0  0  0  0
   -3.6290    1.2570  -19.4560 C   0  0  0  0  0  0  0  0  0  0  0  0
   -4.7540    0.4150  -19.2720 C   0  0  0  0  0  0  0  0  0  0  0  0
   -5.3050    0.1250  -18.0000 C   0  0  0  0  0  0  0  0  0  0  0  0
   -6.3660   -0.6440  -17.8070 N   0  0  0  0  0  0  0  0  0  0  0  0
   -6.9580   -1.1670  -18.8900 C   0  0  0  0  0  0  0  0  0  0  0  0
  2  1  1  0
  3  2  2  0
  4  2  1  0
  5  4  2  0
  6  5  1  0
  7  6  1  0
  8  7  1  0
  9  8  1  1
 10  9  2  0
 11  9  2  0
 12  9  1  0
 13 12  1  0
 14 12  1  0
 15 14  1  0
 15 13  1  0
 15 16  1  6
 17 16  1  0
 18  3  1  0
 18  6  2  0
 19 18  1  0
 20 19  1  0
 20  8  1  0
 19 21  1  1
 22 21  2  0
 23 21  1  0
 24 23  1  0
 25 24  1  0
 26 25  2  0
 27 26  1  0
 28 27  2  0
 29 28  1  0
 30 29  2  0
 30 25  1  0
 31 30  1  0
 32 31  2  0
 33 32  1  0
 33 24  2  0
M  END
$$$$

     RDKit          3D

 18 19  0  0  0  0  0  0  0  0999 V2000
   -8.3040   -0.2010  -21.6430 O   0  0  0  0  0  0  0  0  0  0  0  0
   -7.9240   -1.3480  -21.4190 C   0  0  0  0  0  0  0  0  0  0  0  0
   -8.5110   -2.5410  -22.1480 C   0  0  0  0  0  0  0  0  0  0  0  0
   -9.4990   -2.0800  -23.1960 C   0  0  0  0  0  0  0  0  0  0  0  0
  -10.8290   -1.8700  -22.8590 C   0  0  0  0  0  0  0  0  0  0  0  0
  -11.7050   -1.2350  -23.7250 C   0  0  0  0  0  0  0  0  0  0  0  0
  -13.1140   -0.9150  -23.3000 C   0  0  0  0  0  0  0  0  0  0  0  0
  -11.2310   -0.8540  -24.9750 C   0  0  0  0  0  0  0  0  0  0  0  0
   -9.0650   -1.7040  -24.4610 C   0  0  0  0  0  0  0  0  0  0  0  0
   -9.9190   -1.0860  -25.3660 C   0  0  0  0  0  0  0  0  0  0  0  0
   -9.4250   -0.6540  -26.7240 C   0  0  0  0  0  0  0  0  0  0  0  0
   -7.1030   -1.6650  -20.3730 N   0  0  0  0  0  0  0  0  0  0  0  0
   -6.2820   -0.9860  -19.5050 C   0  0  0  0  0  0  0  0  0  0  0  0
   -5.5240    0.1480  -19.7930 N   0  0  0  0  0  0  0  0  0  0  0  0
   -5.1990    0.7070  -21.1030 C   0  0  0  0  0  0  0  0  0  0  0  0
   -5.0560    0.6020  -18.6240 C   0  0  0  0  0  0  0  0  0  0  0  0
   -5.4550   -0.1610  -17.6490 N   0  0  0  0  0  0  0  0  0  0  0  0
   -6.2250   -1.1770  -18.1980 N   0  0  0  0  0  0  0  0  0  0  0  0
  2  1  2  0
  3  2  1  0
  4  3  1  0
  5  4  2  0
  6  5  1  0
  7  6  1  0
  8  6  2  0
  9  4  1  0
 10  8  1  0
 10  9  2  0
 11 10  1  0
 12  2  1  0
 13 12  1  0
 14 13  1  0
 15 14  1  0
 16 14  1  0
 17 16  2  0
 18 17  1  0
 18 13  2  0
M  END
$$$$

     RDKit          3D

 16 17  0  0  0  0  0  0  0  0999 V2000
   -8.8320   -0.5590  -21.4130 O   0  0  0  0  0  0  0  0  0  0  0  0
   -8.1210   -1.5360  -21.6530 C   0  0  0  0  0  0  0  0  0  0  0  0
   -8.4790   -2.5230  -22.7430 C   0  0  0  0  0  0  0  0  0  0  0  0
   -9.6690   -1.9130  -23.4240 C   0  0  0  0  0  0  0  0  0  0  0  0
   -9.6730   -1.1900  -24.5970 C   0  0  0  0  0  0  0  0  0  0  0  0
  -10.9400   -0.7070  -24.9530 C   0  0  0  0  0  0  0  0  0  0  0  0
  -11.2610   -2.0140  -22.7610 S   0  0  0  0  0  0  0  0  0  0  0  0
  -11.8820   -1.0770  -24.0570 C   0  0  0  0  0  0  0  0  0  0  0  0
  -13.5570   -0.7160  -24.1180 Cl  0  0  0  0  0  0  0  0  0  0  0  0
   -6.9710   -1.8070  -20.9990 N   0  0  0  0  0  0  0  0  0  0  0  0
   -6.3610   -1.0400  -19.9840 C   0  0  0  0  0  0  0  0  0  0  0  0
   -6.9670   -0.8810  -18.7380 C   0  0  0  0  0  0  0  0  0  0  0  0
   -6.4150   -0.1930  -17.7320 N   0  0  0  0  0  0  0  0  0  0  0  0
   -5.2250    0.3780  -17.9520 C   0  0  0  0  0  0  0  0  0  0  0  0
   -4.5490    0.2940  -19.1550 C   0  0  0  0  0  0  0  0  0  0  0  0
   -5.1250   -0.4330  -20.1840 C   0  0  0  0  0  0  0  0  0  0  0  0
  2  1  2  0
  3  2  1  0
  4  3  1  0
  5  4  2  0
  6  5  1  0
  7  4  1  0
  8  7  1  0
  8  6  2  0
  9  8  1  0
 10  2  1  0
 11 10  1  0
 12 11  2  0
 13 12  1  0
 14 13  2  0
 15 14  1  0
 16 11  1  0
 16 15  2  0
M  END
$$$$

     RDKit          3D

 27 30  0  0  0  0  0  0  0  0999 V2000
   -2.4710    2.0100  -21.0770 F   0  0  0  0  0  0  0  0  0  0  0  0
   -3.6210    1.2960  -20.9330 C   0  0  0  0  0  0  0  0  0  0  0  0
   -4.0450    1.0000  -19.6800 C   0  0  0  0  0  0  0  0  0  0  0  0
   -4.2800    0.8980  -22.0710 C   0  0  0  0  0  0  0  0  0  0  0  0
   -5.4260    0.1730  -21.9580 C   0  0  0  0  0  0  0  0  0  0  0  0
   -5.9400   -0.1900  -20.6880 C   0  0  0  0  0  0  0  0  0  0  0  0
   -5.2210    0.2240  -19.5270 C   0  0  0  0  0  0  0  0  0  0  0  0
   -5.7100   -0.1970  -18.2660 C   0  0  0  0  0  0  0  0  0  0  0  0
   -6.7890   -0.9480  -18.0970 N   0  0  0  0  0  0  0  0  0  0  0  0
   -7.4690   -1.3130  -19.1950 C   0  0  0  0  0  0  0  0  0  0  0  0
   -7.1260   -0.9730  -20.5040 C   0  0  0  0  0  0  0  0  0  0  0  0
   -7.8820   -1.3350  -21.6450 N   0  0  0  0  0  0  0  0  0  0  0  0
   -9.0250   -0.7820  -22.1350 C   0  0  0  0  0  0  0  0  0  0  0  0
   -9.5910    0.1950  -21.6610 O   0  0  0  0  0  0  0  0  0  0  0  0
   -9.6370   -1.5060  -23.3900 C   0  0  1  0  0  0  0  0  0  0  0  0
   -9.2200   -2.8550  -23.1610 O   0  0  0  0  0  0  0  0  0  0  0  0
   -9.6140   -3.8290  -24.1340 C   0  0  0  0  0  0  0  0  0  0  0  0
  -11.1480   -1.4330  -23.4620 C   0  0  0  0  0  0  0  0  0  0  0  0
  -11.9130   -2.0060  -22.4510 C   0  0  0  0  0  0  0  0  0  0  0  0
  -13.2450   -1.6590  -22.3260 C   0  0  0  0  0  0  0  0  0  0  0  0
  -14.1970   -2.4300  -21.0890 Cl  0  0  0  0  0  0  0  0  0  0  0  0
  -13.8460   -0.7450  -23.1730 C   0  0  0  0  0  0  0  0  0  0  0  0
  -13.1070   -0.1890  -24.2030 C   0  0  0  0  0  0  0  0  0  0  0  0
  -11.7700   -0.5300  -24.3390 C   0  0  0  0  0  0  0  0  0  0  0  0
  -11.0990    0.0760  -25.3720 O   0  0  0  0  0  0  0  0  0  0  0  0
   -9.7090    0.3600  -25.0820 C   0  0  0  0  0  0  0  0  0  0  0  0
   -8.9590   -0.8760  -24.6180 C   0  0  0  0  0  0  0  0  0  0  0  0
  2  1  1  0
  3  2  2  0
  4  2  1  0
  5  4  2  0
  6  5  1  0
  7  6  2  0
  7  3  1  0
  8  7  1  0
  9  8  2  0
 10  9  1  0
 11 10  2  0
 11  6  1  0
 12 11  1  0
 13 12  1  0
 14 13  2  0
 15 13  1  0
 15 16  1  1
 17 16  1  0
 18 15  1  0
 19 18  2  0
 20 19  1  0
 21 20  1  0
 22 20  2  0
 23 22  1  0
 24 23  2  0
 24 18  1  0
 25 24  1  0
 26 25  1  0
 27 26  1  0
 27 15  1  0
M  END
$$$$

     RDKit          3D

 12 12  0  0  0  0  0  0  0  0999 V2000
   -5.7600   -4.8570  -20.0170 O   0  0  0  0  0  0  0  0  0  0  0  0
   -6.6170   -4.4410  -20.7840 C   0  0  0  0  0  0  0  0  0  0  0  0
   -8.0430   -4.2130  -20.3230 C   0  0  0  0  0  0  0  0  0  0  0  0
   -6.3560   -4.1540  -22.0760 N   0  0  0  0  0  0  0  0  0  0  0  0
   -5.3240   -4.8440  -22.8600 C   0  0  0  0  0  0  0  0  0  0  0  0
   -5.9370   -5.4250  -24.1310 C   0  0  0  0  0  0  0  0  0  0  0  0
   -6.6090   -4.3690  -24.9130 N   0  0  2  0  0  0  0  0  0  0  0  0
   -7.6760   -3.7570  -24.1020 C   0  0  0  0  0  0  0  0  0  0  0  0
   -7.0930   -3.1380  -22.8380 C   0  0  0  0  0  0  0  0  0  0  0  0
   -7.1190   -4.8760  -26.1840 C   0  0  0  0  0  0  0  0  0  0  0  0
   -8.1200   -5.9430  -26.0600 C   0  0  0  0  0  0  0  0  0  0  0  0
   -8.9190   -6.7940  -25.9130 C   0  0  0  0  0  0  0  0  0  0  0  0
  2  1  2  0
  3  2  1  0
  4  2  1  0
  5  4  1  0
  6  5  1  0
  7  6  1  0
  8  7  1  0
  9  8  1  0
  9  4  1  0
  7 10  1  6
 11 10  1  0
 12 11  3  0
M  CHG  1   7   1
M  END
$$$$

     RDKit          3D

 29 32  0  0  0  0  0  0  0  0999 V2000
  -13.8000   -2.8830  -21.7070 Cl  0  0  0  0  0  0  0  0  0  0  0  0
  -12.5800   -2.0650  -22.6400 C   0  0  0  0  0  0  0  0  0  0  0  0
  -11.2520   -2.3650  -22.4170 C   0  0  0  0  0  0  0  0  0  0  0  0
  -12.9630   -1.1130  -23.5570 C   0  0  0  0  0  0  0  0  0  0  0  0
  -11.9880   -0.4490  -24.2770 C   0  0  0  0  0  0  0  0  0  0  0  0
  -10.6340   -0.7330  -24.0900 C   0  0  0  0  0  0  0  0  0  0  0  0
   -9.6170   -0.0860  -25.0020 C   0  0  0  0  0  0  0  0  0  0  0  0
   -8.2520   -0.2420  -24.4920 N   0  0  0  0  0  0  0  0  0  0  0  0
   -7.2440    0.6100  -24.8320 C   0  0  0  0  0  0  0  0  0  0  0  0
   -6.1710    0.2150  -25.2500 O   0  0  0  0  0  0  0  0  0  0  0  0
   -7.5120    1.9340  -24.6910 N   0  0  0  0  0  0  0  0  0  0  0  0
   -7.6040    2.8280  -25.8480 C   0  0  0  0  0  0  0  0  0  0  0  0
   -7.7310    2.5530  -23.3870 C   0  0  0  0  0  0  0  0  0  0  0  0
  -10.2610   -1.6870  -23.1290 C   0  0  0  0  0  0  0  0  0  0  0  0
   -8.7930   -1.9670  -22.8650 C   0  0  1  0  0  0  0  0  0  0  0  0
   -7.9580   -1.6220  -24.0970 C   0  0  0  0  0  0  0  0  0  0  0  0
   -8.3070   -1.1160  -21.6900 C   0  0  0  0  0  0  0  0  0  0  0  0
   -8.8700   -0.0730  -21.3600 O   0  0  0  0  0  0  0  0  0  0  0  0
   -7.1830   -1.5760  -21.0850 N   0  0  0  0  0  0  0  0  0  0  0  0
   -6.4670   -0.9800  -20.0230 C   0  0  0  0  0  0  0  0  0  0  0  0
   -5.3870   -0.0920  -20.3290 C   0  0  0  0  0  0  0  0  0  0  0  0
   -4.9310    0.1730  -21.6470 C   0  0  0  0  0  0  0  0  0  0  0  0
   -3.9120    1.0550  -21.8760 C   0  0  0  0  0  0  0  0  0  0  0  0
   -3.2960    1.7180  -20.8170 C   0  0  0  0  0  0  0  0  0  0  0  0
   -3.6980    1.4970  -19.5290 C   0  0  0  0  0  0  0  0  0  0  0  0
   -4.7510    0.5860  -19.2490 C   0  0  0  0  0  0  0  0  0  0  0  0
   -5.2150    0.3210  -17.9390 C   0  0  0  0  0  0  0  0  0  0  0  0
   -6.2070   -0.5150  -17.6540 N   0  0  0  0  0  0  0  0  0  0  0  0
   -6.8070   -1.1360  -18.6790 C   0  0  0  0  0  0  0  0  0  0  0  0
  2  1  1  0
  3  2  2  0
  4  2  1  0
  5  4  2  0
  6  5  1  0
  7  6  1  0
  8  7  1  0
  9  8  1  0
 10  9  2  0
 11  9  1  0
 12 11  1  0
 13 11  1  0
 14  3  1  0
 14  6  2  0
 15 14  1  0
 16 15  1  0
 16  8  1  0
 15 17  1  1
 18 17  2  0
 19 17  1  0
 20 19  1  0
 21 20  1  0
 22 21  2  0
 23 22  1  0
 24 23  2  0
 25 24  1  0
 26 25  2  0
 26 21  1  0
 27 26  1  0
 28 27  2  0
 29 28  1  0
 29 20  2  0
M  END
$$$$

     RDKit          3D

 21 23  0  0  0  0  0  0  0  0999 V2000
   -9.1240   -0.2730  -21.2080 O   0  0  0  0  0  0  0  0  0  0  0  0
   -8.5800   -1.3270  -21.5350 C   0  0  0  0  0  0  0  0  0  0  0  0
   -9.2340   -2.3030  -22.4950 C   0  0  0  0  0  0  0  0  0  0  0  0
  -10.6640   -1.9570  -22.8320 C   0  0  0  0  0  0  0  0  0  0  0  0
  -11.7340   -2.5390  -22.1650 C   0  0  0  0  0  0  0  0  0  0  0  0
  -13.0190   -2.1330  -22.4860 C   0  0  0  0  0  0  0  0  0  0  0  0
  -13.2170   -1.1830  -23.4750 C   0  0  0  0  0  0  0  0  0  0  0  0
  -10.8330   -1.0430  -23.8050 N   0  0  0  0  0  0  0  0  0  0  0  0
  -12.0820   -0.7060  -24.1060 C   0  0  0  0  0  0  0  0  0  0  0  0
  -12.2610    0.3410  -25.4820 Cl  0  0  0  0  0  0  0  0  0  0  0  0
   -7.3780   -1.7230  -21.0680 N   0  0  0  0  0  0  0  0  0  0  0  0
   -6.6220   -1.1200  -20.0470 C   0  0  0  0  0  0  0  0  0  0  0  0
   -5.5140   -0.2920  -20.4030 C   0  0  0  0  0  0  0  0  0  0  0  0
   -5.0510   -0.1150  -21.7330 C   0  0  0  0  0  0  0  0  0  0  0  0
   -4.0080    0.7250  -22.0070 C   0  0  0  0  0  0  0  0  0  0  0  0
   -3.3680    1.4150  -20.9890 C   0  0  0  0  0  0  0  0  0  0  0  0
   -3.7670    1.2690  -19.6910 C   0  0  0  0  0  0  0  0  0  0  0  0
   -4.8480    0.4130  -19.3620 C   0  0  0  0  0  0  0  0  0  0  0  0
   -5.3180    0.2320  -18.0400 C   0  0  0  0  0  0  0  0  0  0  0  0
   -6.3470   -0.5410  -17.7130 N   0  0  0  0  0  0  0  0  0  0  0  0
   -6.9700   -1.1970  -18.7020 C   0  0  0  0  0  0  0  0  0  0  0  0
  2  1  2  0
  3  2  1  0
  4  3  1  0
  5  4  2  0
  6  5  1  0
  7  6  2  0
  8  4  1  0
  9  7  1  0
  9  8  2  0
 10  9  1  0
 11  2  1  0
 12 11  1  0
 13 12  1  0
 14 13  2  0
 15 14  1  0
 16 15  2  0
 17 16  1  0
 18 13  1  0
 18 17  2  0
 19 18  1  0
 20 19  2  0
 21 20  1  0
 21 12  2  0
M  END
$$$$

     RDKit          3D

 29 32  0  0  0  0  0  0  0  0999 V2000
   -8.8190    0.4590  -21.5600 O   0  0  0  0  0  0  0  0  0  0  0  0
   -8.6940   -0.6290  -22.0980 C   0  0  0  0  0  0  0  0  0  0  0  0
   -8.0280   -1.7890  -21.3590 C   0  0  0  0  0  0  0  0  0  0  0  0
   -7.1590   -1.2980  -20.3120 N   0  0  0  0  0  0  0  0  0  0  0  0
   -5.9950   -0.6020  -20.4150 C   0  0  0  0  0  0  0  0  0  0  0  0
   -5.1810   -0.2480  -21.4820 C   0  0  0  0  0  0  0  0  0  0  0  0
   -4.0670    0.5360  -21.2090 C   0  0  0  0  0  0  0  0  0  0  0  0
   -3.7750    0.9380  -19.9090 C   0  0  0  0  0  0  0  0  0  0  0  0
   -4.5940    0.5750  -18.8460 C   0  0  0  0  0  0  0  0  0  0  0  0
   -5.7160   -0.2080  -19.1100 C   0  0  0  0  0  0  0  0  0  0  0  0
   -6.7030   -0.6930  -18.2840 N   0  0  0  0  0  0  0  0  0  0  0  0
   -7.5560   -1.3540  -19.0150 N   0  0  0  0  0  0  0  0  0  0  0  0
   -9.1010   -0.8650  -23.3780 N   0  0  0  0  0  0  0  0  0  0  0  0
   -9.0260   -2.1350  -24.0180 C   0  0  0  0  0  0  0  0  0  0  0  0
   -8.1440   -2.3320  -25.0720 C   0  0  0  0  0  0  0  0  0  0  0  0
   -8.0240   -3.5770  -25.6600 C   0  0  0  0  0  0  0  0  0  0  0  0
   -9.7970   -3.1970  -23.5640 C   0  0  0  0  0  0  0  0  0  0  0  0
   -9.6630   -4.4480  -24.1330 C   0  0  0  0  0  0  0  0  0  0  0  0
   -8.7770   -4.6630  -25.1970 C   0  0  0  0  0  0  0  0  0  0  0  0
   -8.6390   -5.9120  -25.7580 N   0  0  0  0  0  0  0  0  0  0  0  0
   -9.7110   -6.8840  -25.6690 C   0  0  0  0  0  0  0  0  0  0  0  0
   -7.7090   -6.1540  -26.8540 C   0  0  0  0  0  0  0  0  0  0  0  0
   -9.6380    0.2520  -24.1630 C   0  0  0  0  0  0  0  0  0  0  0  0
  -11.0670    0.5900  -23.8140 C   0  0  0  0  0  0  0  0  0  0  0  0
  -11.3670    1.7280  -23.0740 C   0  0  0  0  0  0  0  0  0  0  0  0
  -12.6690    1.9940  -22.6830 C   0  0  0  0  0  0  0  0  0  0  0  0
  -13.6870    1.1250  -23.0240 C   0  0  0  0  0  0  0  0  0  0  0  0
  -13.4060   -0.0010  -23.7760 C   0  0  0  0  0  0  0  0  0  0  0  0
  -12.1040   -0.2630  -24.1740 C   0  0  0  0  0  0  0  0  0  0  0  0
  2  1  2  0
  3  2  1  0
  4  3  1  0
  5  4  1  0
  6  5  2  0
  7  6  1  0
  8  7  2  0
  9  8  1  0
 10  5  1  0
 10  9  2  0
 11 10  1  0
 12 11  2  0
 12  4  1  0
 13  2  1  0
 14 13  1  0
 15 14  2  0
 16 15  1  0
 17 14  1  0
 18 17  2  0
 19 18  1  0
 19 16  2  0
 20 19  1  0
 21 20  1  0
 22 20  1  0
 23 13  1  0
 24 23  1  0
 25 24  2  0
 26 25  1  0
 27 26  2  0
 28 27  1  0
 29 28  2  0
 29 24  1  0
M  END
$$$$

     RDKit          3D

 25 28  0  0  0  0  0  0  0  0999 V2000
   -9.0150   -0.0220  -21.2680 O   0  0  0  0  0  0  0  0  0  0  0  0
   -8.4620   -1.0730  -21.6090 C   0  0  0  0  0  0  0  0  0  0  0  0
   -9.0300   -1.9730  -22.7080 C   0  0  2  0  0  0  0  0  0  0  0  0
   -8.2780   -1.6510  -24.0090 C   0  0  0  0  0  0  0  0  0  0  0  0
   -8.6610   -0.3370  -24.6290 C   0  0  0  0  0  0  0  0  0  0  0  0
   -7.8430    0.3730  -25.2020 O   0  0  0  0  0  0  0  0  0  0  0  0
   -9.9570    0.0240  -24.5200 N   0  0  0  0  0  0  0  0  0  0  0  0
  -10.5040   -1.7280  -22.9460 C   0  0  0  0  0  0  0  0  0  0  0  0
  -10.9100   -0.6710  -23.7740 C   0  0  0  0  0  0  0  0  0  0  0  0
  -12.2650   -0.3650  -23.9050 C   0  0  0  0  0  0  0  0  0  0  0  0
  -13.2110   -1.1020  -23.2130 C   0  0  0  0  0  0  0  0  0  0  0  0
  -11.4680   -2.4700  -22.2700 C   0  0  0  0  0  0  0  0  0  0  0  0
  -12.7980   -2.1350  -22.3970 C   0  0  0  0  0  0  0  0  0  0  0  0
  -13.9740   -2.9850  -21.4360 Cl  0  0  0  0  0  0  0  0  0  0  0  0
   -7.3210   -1.5270  -21.0500 N   0  0  0  0  0  0  0  0  0  0  0  0
   -6.6170   -0.9430  -19.9890 C   0  0  0  0  0  0  0  0  0  0  0  0
   -5.5530   -0.0450  -20.2920 C   0  0  0  0  0  0  0  0  0  0  0  0
   -5.0890    0.2140  -21.6090 C   0  0  0  0  0  0  0  0  0  0  0  0
   -4.0320    1.0520  -21.8280 C   0  0  0  0  0  0  0  0  0  0  0  0
   -3.3840    1.6700  -20.7660 C   0  0  0  0  0  0  0  0  0  0  0  0
   -3.8060    1.4640  -19.4810 C   0  0  0  0  0  0  0  0  0  0  0  0
   -4.9010    0.6070  -19.2100 C   0  0  0  0  0  0  0  0  0  0  0  0
   -5.3600    0.3260  -17.9000 C   0  0  0  0  0  0  0  0  0  0  0  0
   -6.3470   -0.5140  -17.6200 N   0  0  0  0  0  0  0  0  0  0  0  0
   -6.9500   -1.1280  -18.6490 C   0  0  0  0  0  0  0  0  0  0  0  0
  2  1  2  0
  3  2  1  1
  4  3  1  0
  5  4  1  0
  6  5  2  0
  7  5  1  0
  8  3  1  0
  9  8  2  0
  9  7  1  0
 10  9  1  0
 11 10  2  0
 12  8  1  0
 13 12  2  0
 13 11  1  0
 14 13  1  0
 15  2  1  0
 16 15  1  0
 17 16  1  0
 18 17  2  0
 19 18  1  0
 20 19  2  0
 21 20  1  0
 22 17  1  0
 22 21  2  0
 23 22  1  0
 24 23  2  0
 25 24  1  0
 25 16  2  0
M  END
$$$$

     RDKit          3D

 20 22  0  0  0  0  0  0  0  0999 V2000
   -8.5340   -0.6020  -21.3880 O   0  0  0  0  0  0  0  0  0  0  0  0
   -7.7890   -1.5150  -21.7480 C   0  0  0  0  0  0  0  0  0  0  0  0
   -6.6250   -1.8140  -21.1420 N   0  0  0  0  0  0  0  0  0  0  0  0
   -6.0630   -1.0750  -20.0840 C   0  0  0  0  0  0  0  0  0  0  0  0
   -6.5810   -1.1580  -18.7910 C   0  0  0  0  0  0  0  0  0  0  0  0
   -6.1170   -0.4320  -17.7700 N   0  0  0  0  0  0  0  0  0  0  0  0
   -5.0930    0.3920  -18.0160 C   0  0  0  0  0  0  0  0  0  0  0  0
   -4.5000    0.5260  -19.2570 C   0  0  0  0  0  0  0  0  0  0  0  0
   -4.9940   -0.1980  -20.3360 C   0  0  0  0  0  0  0  0  0  0  0  0
   -4.4510    0.0230  -21.7260 C   0  0  0  0  0  0  0  0  0  0  0  0
   -8.0850   -2.3650  -22.9670 C   0  0  0  0  0  0  0  0  0  0  0  0
   -9.2910   -1.8130  -23.6820 C   0  0  0  0  0  0  0  0  0  0  0  0
  -10.5670   -2.1630  -23.2590 C   0  0  0  0  0  0  0  0  0  0  0  0
  -11.6950   -1.5240  -23.7530 C   0  0  0  0  0  0  0  0  0  0  0  0
  -13.0650   -1.9420  -23.2700 C   0  0  2  0  0  0  0  0  0  0  0  0
  -13.2410   -2.6020  -21.9340 C   0  0  0  0  0  0  0  0  0  0  0  0
  -13.4360   -3.3910  -23.1660 C   0  0  0  0  0  0  0  0  0  0  0  0
  -11.5360   -0.5210  -24.6970 C   0  0  0  0  0  0  0  0  0  0  0  0
  -10.2760   -0.1860  -25.1620 C   0  0  0  0  0  0  0  0  0  0  0  0
   -9.1600   -0.8380  -24.6600 C   0  0  0  0  0  0  0  0  0  0  0  0
  2  1  2  0
  3  2  1  0
  4  3  1  0
  5  4  2  0
  6  5  1  0
  7  6  2  0
  8  7  1  0
  9  4  1  0
  9  8  2  0
 10  9  1  0
 11  2  1  0
 12 11  1  0
 13 12  2  0
 14 13  1  0
 15 14  1  1
 16 15  1  0
 17 16  1  0
 17 15  1  0
 18 14  2  0
 19 18  1  0
 20 19  2  0
 20 12  1  0
M  END
$$$$

     RDKit          3D

 22 24  0  0  0  0  0  0  0  0999 V2000
   -8.7240    0.0970  -21.6770 O   0  0  0  0  0  0  0  0  0  0  0  0
   -8.5500   -1.0470  -22.0820 C   0  0  0  0  0  0  0  0  0  0  0  0
   -7.5550   -1.9780  -21.3900 C   0  0  0  0  0  0  0  0  0  0  0  0
   -6.9070   -1.3300  -20.2660 N   0  0  0  0  0  0  0  0  0  0  0  0
   -5.8080   -0.5260  -20.2490 C   0  0  0  0  0  0  0  0  0  0  0  0
   -4.9760   -0.0160  -21.2350 C   0  0  0  0  0  0  0  0  0  0  0  0
   -3.9810    0.8690  -20.8480 C   0  0  0  0  0  0  0  0  0  0  0  0
   -3.8170    1.2210  -19.5100 C   0  0  0  0  0  0  0  0  0  0  0  0
   -4.6420    0.6890  -18.5270 C   0  0  0  0  0  0  0  0  0  0  0  0
   -5.6540   -0.1870  -18.9080 C   0  0  0  0  0  0  0  0  0  0  0  0
   -6.6550   -0.7960  -18.1830 N   0  0  0  0  0  0  0  0  0  0  0  0
   -7.4010   -1.4750  -19.0110 N   0  0  0  0  0  0  0  0  0  0  0  0
   -9.2240   -1.5390  -23.1440 N   0  0  0  0  0  0  0  0  0  0  0  0
   -8.8540   -2.7790  -23.8570 C   0  0  0  0  0  0  0  0  0  0  0  0
   -7.7760   -2.5660  -24.9030 C   0  0  0  0  0  0  0  0  0  0  0  0
  -10.3800   -0.8190  -23.6840 C   0  0  0  0  0  0  0  0  0  0  0  0
  -11.6360   -1.6530  -23.7710 C   0  0  0  0  0  0  0  0  0  0  0  0
  -12.1740   -2.2550  -22.6410 C   0  0  0  0  0  0  0  0  0  0  0  0
  -13.3570   -2.9760  -22.7160 C   0  0  0  0  0  0  0  0  0  0  0  0
  -14.0160   -3.1010  -23.9200 C   0  0  0  0  0  0  0  0  0  0  0  0
  -13.4940   -2.5120  -25.0470 C   0  0  0  0  0  0  0  0  0  0  0  0
  -12.3110   -1.7930  -24.9750 C   0  0  0  0  0  0  0  0  0  0  0  0
  2  1  2  0
  3  2  1  0
  4  3  1  0
  5  4  1  0
  6  5  2  0
  7  6  1  0
  8  7  2  0
  9  8  1  0
 10  5  1  0
 10  9  2  0
 11 10  1  0
 12 11  2  0
 12  4  1  0
 13  2  1  0
 14 13  1  0
 15 14  1  0
 16 13  1  0
 17 16  1  0
 18 17  2  0
 19 18  1  0
 20 19  2  0
 21 20  1  0
 22 21  2  0
 22 17  1  0
M  END
$$$$

     RDKit          3D

 26 29  0  0  0  0  0  0  0  0999 V2000
   -5.3760   -3.6350  -21.0450 O   0  0  0  0  0  0  0  0  0  0  0  0
   -5.9410   -2.5600  -21.0230 C   0  0  0  0  0  0  0  0  0  0  0  0
   -5.5770   -1.5460  -19.9810 C   0  0  0  0  0  0  0  0  0  0  0  0
   -4.7020   -0.4620  -20.2720 C   0  0  0  0  0  0  0  0  0  0  0  0
   -4.0650   -0.2620  -21.5280 C   0  0  0  0  0  0  0  0  0  0  0  0
   -3.2080    0.7820  -21.7230 C   0  0  0  0  0  0  0  0  0  0  0  0
   -2.9370    1.6790  -20.6970 C   0  0  0  0  0  0  0  0  0  0  0  0
   -3.5310    1.5360  -19.4730 C   0  0  0  0  0  0  0  0  0  0  0  0
   -4.4270    0.4650  -19.2260 C   0  0  0  0  0  0  0  0  0  0  0  0
   -5.0410    0.2390  -17.9680 C   0  0  0  0  0  0  0  0  0  0  0  0
   -5.8590   -0.7760  -17.7040 N   0  0  0  0  0  0  0  0  0  0  0  0
   -6.1170   -1.6360  -18.7000 C   0  0  0  0  0  0  0  0  0  0  0  0
   -6.8930   -2.2260  -21.9160 N   0  0  0  0  0  0  0  0  0  0  0  0
   -7.4670   -3.1560  -22.8990 C   0  0  0  0  0  0  0  0  0  0  0  0
   -8.9850   -3.2020  -22.7500 C   0  0  0  0  0  0  0  0  0  0  0  0
   -7.4330   -0.8760  -22.0110 C   0  0  0  0  0  0  0  0  0  0  0  0
   -8.9340   -0.8090  -22.0210 C   0  0  0  0  0  0  0  0  0  0  0  0
   -9.5000    0.1640  -21.5310 O   0  0  0  0  0  0  0  0  0  0  0  0
   -9.5910   -1.8680  -22.5720 N   0  0  0  0  0  0  0  0  0  0  0  0
  -10.9600   -1.7710  -22.9520 C   0  0  0  0  0  0  0  0  0  0  0  0
  -11.8890   -2.5890  -22.3210 C   0  0  0  0  0  0  0  0  0  0  0  0
  -13.2310   -2.3700  -22.5450 C   0  0  0  0  0  0  0  0  0  0  0  0
  -14.3860   -3.1740  -21.5260 Cl  0  0  0  0  0  0  0  0  0  0  0  0
  -11.3850   -0.8010  -23.8640 C   0  0  0  0  0  0  0  0  0  0  0  0
  -12.7400   -0.6390  -24.1130 C   0  0  0  0  0  0  0  0  0  0  0  0
  -13.6750   -1.4210  -23.4480 C   0  0  0  0  0  0  0  0  0  0  0  0
  2  1  2  0
  3  2  1  0
  4  3  1  0
  5  4  2  0
  6  5  1  0
  7  6  2  0
  8  7  1  0
  9  8  2  0
  9  4  1  0
 10  9  1  0
 11 10  2  0
 12 11  1  0
 12  3  2  0
 13  2  1  0
 14 13  1  0
 15 14  1  0
 16 13  1  0
 17 16  1  0
 18 17  2  0
 19 17  1  0
 19 15  1  0
 20 19  1  0
 21 20  2  0
 22 21  1  0
 23 22  1  0
 24 20  1  0
 25 24  2  0
 26 25  1  0
 26 22  2  0
M  END
$$$$

     RDKit          3D

 27 29  0  0  0  0  0  0  0  0999 V2000
   -8.8500   -0.2670  -21.5560 O   0  0  0  0  0  0  0  0  0  0  0  0
   -8.2960   -1.3410  -21.7770 C   0  0  0  0  0  0  0  0  0  0  0  0
   -7.1680   -1.7420  -21.1480 N   0  0  0  0  0  0  0  0  0  0  0  0
   -6.4910   -1.1100  -20.0820 C   0  0  0  0  0  0  0  0  0  0  0  0
   -5.3950   -0.2400  -20.3830 C   0  0  0  0  0  0  0  0  0  0  0  0
   -4.9010   -0.0170  -21.6930 C   0  0  0  0  0  0  0  0  0  0  0  0
   -3.8600    0.8400  -21.9160 C   0  0  0  0  0  0  0  0  0  0  0  0
   -3.2640    1.5160  -20.8590 C   0  0  0  0  0  0  0  0  0  0  0  0
   -3.6980    1.3310  -19.5790 C   0  0  0  0  0  0  0  0  0  0  0  0
   -4.7690    0.4470  -19.3020 C   0  0  0  0  0  0  0  0  0  0  0  0
   -5.2590    0.2040  -17.9960 C   0  0  0  0  0  0  0  0  0  0  0  0
   -6.2700   -0.6090  -17.7170 N   0  0  0  0  0  0  0  0  0  0  0  0
   -6.8590   -1.2400  -18.7420 C   0  0  0  0  0  0  0  0  0  0  0  0
   -8.8470   -2.3340  -22.7830 C   0  0  0  0  0  0  0  0  0  0  0  0
  -10.2530   -1.9360  -23.1850 C   0  0  0  0  0  0  0  0  0  0  0  0
  -11.3190   -2.3540  -22.3870 C   0  0  0  0  0  0  0  0  0  0  0  0
  -12.6040   -1.9410  -22.6800 C   0  0  0  0  0  0  0  0  0  0  0  0
  -13.9080   -2.4050  -21.6210 Cl  0  0  0  0  0  0  0  0  0  0  0  0
  -12.8730   -1.1420  -23.7650 C   0  0  0  0  0  0  0  0  0  0  0  0
  -11.8300   -0.7470  -24.5790 C   0  0  0  0  0  0  0  0  0  0  0  0
  -10.5160   -1.1300  -24.3100 C   0  0  0  0  0  0  0  0  0  0  0  0
   -9.3940   -0.6810  -25.2210 C   0  0  0  0  0  0  0  0  0  0  0  0
   -9.8540    0.1770  -26.3250 N   0  0  0  0  0  0  0  0  0  0  0  0
   -9.7100   -0.2020  -27.8950 S   0  0  1  0  0  0  0  0  0  0  0  0
  -11.0200   -0.1270  -28.4630 O   0  0  0  0  0  0  0  0  0  0  0  0
   -8.6810    0.6330  -28.4310 O   0  0  0  0  0  0  0  0  0  0  0  0
   -9.1680   -1.8650  -27.9940 C   0  0  0  0  0  0  0  0  0  0  0  0
  2  1  2  0
  3  2  1  0
  4  3  1  0
  5  4  1  0
  6  5  2  0
  7  6  1  0
  8  7  2  0
  9  8  1  0
 10  9  2  0
 10  5  1  0
 11 10  1  0
 12 11  2  0
 13 12  1  0
 13  4  2  0
 14  2  1  0
 15 14  1  0
 16 15  2  0
 17 16  1  0
 18 17  1  0
 19 17  2  0
 20 19  1  0
 21 20  2  0
 21 15  1  0
 22 21  1  0
 23 22  1  0
 24 23  1  0
 25 24  2  0
 26 24  2  0
 24 27  1  1
M  END
$$$$

     RDKit          3D

 15 16  0  0  0  0  0  0  0  0999 V2000
   -7.8230   -1.3630    4.5610 C   0  0  0  0  0  0  0  0  0  0  0  0
   -6.2640   -3.1330    5.3300 C   0  0  0  0  0  0  0  0  0  0  0  0
   -5.4540   -3.3210    6.3910 C   0  0  0  0  0  0  0  0  0  0  0  0
   -5.5890   -2.1930    7.2120 C   0  0  0  0  0  0  0  0  0  0  0  0
   -4.8620   -1.9190    8.5510 C   0  0  0  0  0  0  0  0  0  0  0  0
   -3.4030   -2.6830   10.5250 C   0  0  0  0  0  0  0  0  0  0  0  0
   -4.2880   -3.0980   11.6630 C   0  0  2  0  0  0  0  0  0  0  0  0
   -3.5930   -2.6990   13.1140 C   0  0  0  0  0  0  0  0  0  0  0  0
   -4.0290   -3.5580   13.9730 C   0  0  0  0  0  0  0  0  0  0  0  0
   -4.4890   -4.8220   13.1490 C   0  0  0  0  0  0  0  0  0  0  0  0
   -6.8580   -1.9590    5.4990 N   0  0  0  0  0  0  0  0  0  0  0  0
   -4.0990   -2.9760    9.2450 N   0  0  0  0  0  0  0  0  0  0  0  0
   -6.4320   -1.3890    6.6510 N   0  0  0  0  0  0  0  0  0  0  0  0
   -4.9130   -0.8280    8.9960 O   0  0  0  0  0  0  0  0  0  0  0  0
   -4.4350   -4.3950   11.6600 O   0  0  0  0  0  0  0  0  0  0  0  0
  3  2  2  0
  4  3  1  0
  5  4  1  0
  7  6  1  6
  8  7  1  0
  9  8  1  0
 10  9  1  0
 11  2  1  0
 11  1  1  0
 12  6  1  0
 12  5  1  0
 13 11  1  0
 13  4  2  0
 14  5  2  0
 15 10  1  0
 15  7  1  0
M  END
$$$$

     RDKit          3D

 18 19  0  0  0  0  0  0  0  0999 V2000
  -14.1400   -3.3630  -20.8820 N   0  0  0  0  0  0  0  0  0  0  0  0
  -13.4180   -2.7910  -21.5540 C   0  0  0  0  0  0  0  0  0  0  0  0
  -12.4650   -2.0900  -22.3720 C   0  0  0  0  0  0  0  0  0  0  0  0
  -12.8550   -1.0920  -23.2630 C   0  0  0  0  0  0  0  0  0  0  0  0
  -11.9870   -0.3750  -23.9900 N   0  0  0  0  0  0  0  0  0  0  0  0
  -10.6790   -0.6290  -23.8190 C   0  0  0  0  0  0  0  0  0  0  0  0
  -11.1070   -2.3460  -22.2250 C   0  0  0  0  0  0  0  0  0  0  0  0
  -10.1850   -1.5860  -22.9290 C   0  0  0  0  0  0  0  0  0  0  0  0
   -8.8320   -1.7540  -22.5720 N   0  0  0  0  0  0  0  0  0  0  0  0
   -8.1600   -1.0600  -21.6330 C   0  0  0  0  0  0  0  0  0  0  0  0
   -8.6000   -0.0470  -21.0970 O   0  0  0  0  0  0  0  0  0  0  0  0
   -6.8030   -1.6310  -21.2730 C   0  0  0  0  0  0  0  0  0  0  0  0
   -6.1930   -0.9140  -20.0910 C   0  0  0  0  0  0  0  0  0  0  0  0
   -6.6850   -1.1030  -18.8100 C   0  0  0  0  0  0  0  0  0  0  0  0
   -6.1970   -0.4930  -17.7230 N   0  0  0  0  0  0  0  0  0  0  0  0
   -5.1700    0.3500  -17.8980 C   0  0  0  0  0  0  0  0  0  0  0  0
   -4.6080    0.6120  -19.1330 C   0  0  0  0  0  0  0  0  0  0  0  0
   -5.1280   -0.0370  -20.2380 C   0  0  0  0  0  0  0  0  0  0  0  0
  2  1  3  0
  3  2  1  0
  4  3  2  0
  5  4  1  0
  6  5  2  0
  7  3  1  0
  8  7  2  0
  8  6  1  0
  9  8  1  0
 10  9  1  0
 11 10  2  0
 12 10  1  0
 13 12  1  0
 14 13  2  0
 15 14  1  0
 16 15  2  0
 17 16  1  0
 18 13  1  0
 18 17  2  0
M  END
$$$$

     RDKit          3D

 25 27  0  0  0  0  0  0  0  0999 V2000
   -5.5510   -2.7820  -21.0730 C   0  0  0  0  0  0  0  0  0  0  0  0
   -8.7480   -1.9810  -22.5190 C   0  0  0  0  0  0  0  0  0  0  0  0
   -7.2850   -1.5670  -22.4370 C   0  0  0  0  0  0  0  0  0  0  0  0
   -8.9020   -3.0890  -23.4810 N   0  0  0  0  0  0  0  0  0  0  0  0
   -8.1010   -4.2520  -23.0850 C   0  0  0  0  0  0  0  0  0  0  0  0
   -5.3660   -1.5810  -20.1720 C   0  0  0  0  0  0  0  0  0  0  0  0
  -10.1970   -3.3200  -23.9960 C   0  0  0  0  0  0  0  0  0  0  0  0
  -10.4350   -4.1890  -25.0760 C   0  0  0  0  0  0  0  0  0  0  0  0
  -11.7230   -4.3920  -25.5640 C   0  0  0  0  0  0  0  0  0  0  0  0
  -12.8380   -3.7530  -25.0170 C   0  0  0  0  0  0  0  0  0  0  0  0
  -12.5810   -2.8890  -23.9410 C   0  0  0  0  0  0  0  0  0  0  0  0
  -11.3110   -2.6630  -23.4320 C   0  0  0  0  0  0  0  0  0  0  0  0
   -4.0940    0.4820  -19.9630 C   0  0  0  0  0  0  0  0  0  0  0  0
   -5.7700   -0.1530  -18.2500 C   0  0  0  0  0  0  0  0  0  0  0  0
   -6.0430   -1.3510  -19.0210 C   0  0  0  0  0  0  0  0  0  0  0  0
  -14.2330   -3.9780  -25.5520 C   0  0  0  0  0  0  0  0  0  0  0  0
   -6.6270   -3.8700  -22.9690 C   0  0  0  0  0  0  0  0  0  0  0  0
   -4.4250   -0.6850  -20.6210 N   0  0  0  0  0  0  0  0  0  0  0  0
   -4.7950    0.6870  -18.7930 N   0  0  0  0  0  0  0  0  0  0  0  0
   -6.4540   -2.7230  -22.0690 N   0  0  0  0  0  0  0  0  0  0  0  0
   -3.2470    1.2620  -20.3850 O   0  0  0  0  0  0  0  0  0  0  0  0
   -6.3250    0.1490  -17.1930 O   0  0  0  0  0  0  0  0  0  0  0  0
  -14.1930   -4.9750  -26.5710 O   0  0  0  0  0  0  0  0  0  0  0  0
   -4.8470   -3.7810  -20.8380 O   0  0  0  0  0  0  0  0  0  0  0  0
  -13.9280   -2.0260  -23.1720 Cl  0  0  0  0  0  0  0  0  0  0  0  0
  3  2  1  0
  4  2  1  0
  5  4  1  0
  6  1  1  0
  7  4  1  0
  8  7  2  0
  9  8  1  0
 10  9  2  0
 11 10  1  0
 12 11  2  0
 12  7  1  0
 15 14  1  0
 15  6  2  0
 16 10  1  0
 17  5  1  0
 18 13  1  0
 18  6  1  0
 19 14  1  0
 19 13  1  0
 20 17  1  0
 20  3  1  0
 20  1  1  0
 21 13  2  0
 22 14  2  0
 23 16  1  0
 24  1  2  0
 25 11  1  0
M  END
$$$$

     RDKit          3D

 22 24  0  0  0  0  0  0  0  0999 V2000
   -6.2940   -0.3420  -17.8220 N   0  0  0  0  0  0  0  0  0  0  0  0
  -13.0650    2.7460  -22.2060 N   0  0  0  0  0  0  0  0  0  0  0  0
   -7.2250   -1.7100  -21.2190 C   0  0  0  0  0  0  0  0  0  0  0  0
  -12.3490   -0.0530  -23.4760 C   0  0  0  0  0  0  0  0  0  0  0  0
  -12.6520    1.1760  -24.0260 O   0  0  0  0  0  0  0  0  0  0  0  0
  -11.7320   -2.5380  -22.4230 C   0  0  0  0  0  0  0  0  0  0  0  0
   -6.4840   -0.9480  -20.1430 C   0  0  0  0  0  0  0  0  0  0  0  0
   -6.8940   -1.0050  -18.8210 C   0  0  0  0  0  0  0  0  0  0  0  0
   -5.2350    0.4200  -18.1390 C   0  0  0  0  0  0  0  0  0  0  0  0
   -4.7490    0.5480  -19.4270 C   0  0  0  0  0  0  0  0  0  0  0  0
  -13.3640   -0.9680  -23.2420 C   0  0  0  0  0  0  0  0  0  0  0  0
  -12.5090    3.5740  -24.0270 C   0  0  0  0  0  0  0  0  0  0  0  0
  -13.0480   -2.2120  -22.7140 C   0  0  0  0  0  0  0  0  0  0  0  0
  -12.1380    2.2930  -23.2760 C   0  0  1  0  0  0  0  0  0  0  0  0
  -13.1600    3.9900  -22.7170 C   0  0  0  0  0  0  0  0  0  0  0  0
   -8.5310   -1.0500  -21.6150 C   0  0  0  0  0  0  0  0  0  0  0  0
   -9.3980   -1.8780  -22.2380 N   0  0  0  0  0  0  0  0  0  0  0  0
   -8.7620    0.1330  -21.3720 O   0  0  0  0  0  0  0  0  0  0  0  0
  -13.5830    5.0440  -22.2380 O   0  0  0  0  0  0  0  0  0  0  0  0
  -10.7240   -1.6060  -22.6410 C   0  0  0  0  0  0  0  0  0  0  0  0
   -5.3870   -0.1510  -20.4380 C   0  0  0  0  0  0  0  0  0  0  0  0
  -11.0300   -0.3630  -23.1840 C   0  0  0  0  0  0  0  0  0  0  0  0
  5  4  1  0
  7  3  1  0
  8  7  1  0
  8  1  2  0
  9  1  1  0
 10  9  2  0
 11  4  2  0
 13 11  1  0
 13  6  2  0
 14 12  1  0
 14  5  1  6
 14  2  1  0
 15 12  1  0
 15  2  1  0
 16  3  1  0
 17 16  1  0
 18 16  2  0
 19 15  2  0
 20  6  1  0
 20 17  1  0
 21  7  2  0
 21 10  1  0
 22  4  1  0
 22 20  2  0
M  END
$$$$

     RDKit          3D

 17 18  0  0  0  0  0  0  0  0999 V2000
   -7.9800   -3.3030  -23.4070 N   0  0  2  0  0  0  0  0  0  0  0  0
  -10.8820    0.9610  -25.0060 C   0  0  0  0  0  0  0  0  0  0  0  0
   -5.3300   -5.1890  -19.8690 O   0  0  0  0  0  0  0  0  0  0  0  0
  -11.0850   -0.4260  -24.4650 C   0  0  0  0  0  0  0  0  0  0  0  0
   -8.3970   -2.7640  -22.1090 C   0  0  0  0  0  0  0  0  0  0  0  0
   -6.0600   -4.2050  -19.9190 C   0  0  0  0  0  0  0  0  0  0  0  0
   -6.7120   -3.6950  -18.6630 C   0  0  0  0  0  0  0  0  0  0  0  0
  -10.0910   -1.3840  -24.5790 C   0  0  0  0  0  0  0  0  0  0  0  0
  -12.2650   -0.7850  -23.8300 C   0  0  0  0  0  0  0  0  0  0  0  0
  -12.4440   -2.0560  -23.3180 C   0  0  0  0  0  0  0  0  0  0  0  0
  -11.4400   -2.9980  -23.4450 C   0  0  0  0  0  0  0  0  0  0  0  0
  -10.2610   -2.6770  -24.0960 C   0  0  0  0  0  0  0  0  0  0  0  0
   -9.1420   -3.6790  -24.2170 C   0  0  0  0  0  0  0  0  0  0  0  0
   -7.0910   -4.4520  -23.2260 C   0  0  0  0  0  0  0  0  0  0  0  0
   -5.8990   -4.0810  -22.3750 C   0  0  0  0  0  0  0  0  0  0  0  0
   -7.2040   -2.4050  -21.2550 C   0  0  0  0  0  0  0  0  0  0  0  0
   -6.3590   -3.5830  -21.0820 N   0  0  0  0  0  0  0  0  0  0  0  0
  4  2  1  0
  5  1  1  0
  6  3  2  0
  7  6  1  0
  8  4  2  0
  9  4  1  0
 10  9  2  0
 11 10  1  0
 12 11  2  0
 12  8  1  0
 13 12  1  0
  1 13  1  6
 14  1  1  0
 15 14  1  0
 16  5  1  0
 17 15  1  0
 17 16  1  0
 17  6  1  0
M  CHG  1   1   1
M  END
$$$$

     RDKit          3D

 34 36  0  0  0  0  0  0  0  0999 V2000
   -8.9960    0.1690  -21.2770 O   0  0  0  0  0  0  0  0  0  0  0  0
   -7.9520    0.1110  -21.9170 C   0  0  0  0  0  0  0  0  0  0  0  0
   -7.6580    0.9480  -22.9420 N   0  0  0  0  0  0  0  0  0  0  0  0
   -8.4100    2.0890  -23.3330 C   0  0  0  0  0  0  0  0  0  0  0  0
   -7.9890    3.3630  -22.9500 C   0  0  0  0  0  0  0  0  0  0  0  0
   -8.7020    4.4770  -23.3640 C   0  0  0  0  0  0  0  0  0  0  0  0
   -9.8120    4.3240  -24.1820 C   0  0  0  0  0  0  0  0  0  0  0  0
  -10.4430    5.4690  -24.6060 O   0  0  0  0  0  0  0  0  0  0  0  0
  -11.5720    5.3520  -25.4800 C   0  0  0  0  0  0  0  0  0  0  0  0
  -10.2390    3.0590  -24.5570 C   0  0  0  0  0  0  0  0  0  0  0  0
   -9.5590    1.9240  -24.1350 C   0  0  0  0  0  0  0  0  0  0  0  0
  -10.0790    0.5660  -24.5280 C   0  0  0  0  0  0  0  0  0  0  0  0
   -6.8610   -0.9040  -21.5320 C   0  0  1  0  0  0  0  0  0  0  0  0
   -6.2370   -0.5790  -20.1810 C   0  0  0  0  0  0  0  0  0  0  0  0
   -5.0420    0.1200  -20.0960 C   0  0  0  0  0  0  0  0  0  0  0  0
   -4.5230    0.4620  -18.8610 C   0  0  0  0  0  0  0  0  0  0  0  0
   -5.2180    0.0760  -17.7290 C   0  0  0  0  0  0  0  0  0  0  0  0
   -6.3710   -0.6010  -17.7710 N   0  0  0  0  0  0  0  0  0  0  0  0
   -6.8540   -0.9130  -18.9810 C   0  0  0  0  0  0  0  0  0  0  0  0
   -7.1030   -2.3510  -21.8000 N   0  0  0  0  0  0  0  0  0  0  0  0
   -6.2620   -3.3490  -21.3890 C   0  0  0  0  0  0  0  0  0  0  0  0
   -5.2310   -3.1130  -20.7880 O   0  0  0  0  0  0  0  0  0  0  0  0
   -6.6380   -4.7790  -21.6850 C   0  0  0  0  0  0  0  0  0  0  0  0
   -6.6540   -5.6060  -20.4250 C   0  0  0  0  0  0  0  0  0  0  0  0
   -8.2710   -2.6300  -22.5940 C   0  0  0  0  0  0  0  0  0  0  0  0
   -8.1990   -2.6070  -23.9850 C   0  0  0  0  0  0  0  0  0  0  0  0
   -9.3500   -2.7490  -24.7400 C   0  0  0  0  0  0  0  0  0  0  0  0
  -10.5940   -2.8920  -24.1370 C   0  0  0  0  0  0  0  0  0  0  0  0
  -10.6480   -2.9770  -22.7520 C   0  0  0  0  0  0  0  0  0  0  0  0
   -9.5040   -2.8490  -21.9830 C   0  0  0  0  0  0  0  0  0  0  0  0
  -11.8610   -2.7590  -24.9500 C   0  0  2  0  0  0  0  0  0  0  0  0
  -12.8550   -1.8080  -24.3210 C   0  0  0  0  0  0  0  0  0  0  0  0
  -12.5770   -3.9830  -24.9980 O   0  0  0  0  0  0  0  0  0  0  0  0
  -12.3760   -4.6840  -26.2160 C   0  0  0  0  0  0  0  0  0  0  0  0
  2  1  2  0
  3  2  1  0
  4  3  1  0
  5  4  2  0
  6  5  1  0
  7  6  2  0
  8  7  1  0
  9  8  1  0
 10  7  1  0
 11 10  2  0
 11  4  1  0
 12 11  1  0
 13  2  1  0
 14 13  1  0
 15 14  2  0
 16 15  1  0
 17 16  2  0
 18 17  1  0
 19 18  2  0
 19 14  1  0
 13 20  1  1
 21 20  1  0
 22 21  2  0
 23 21  1  0
 24 23  1  0
 25 20  1  0
 26 25  2  0
 27 26  1  0
 28 27  2  0
 29 28  1  0
 30 29  2  0
 30 25  1  0
 31 28  1  0
 31 32  1  1
 33 31  1  0
 34 33  1  0
M  END
$$$$
